$DATA1 SOURCE='HSPICE' VERSION='G-2012.06-SP1 32-BIT'
.TITLE '*ac analysis for inv'
 tphl1            tplh1            tphl3            tplh3             
 tphl2            tplh2            tp               temper            
 alter#            
  7.453e-08        1.592e-08        6.665e-09        1.600e-08        
  7.501e-09        1.601e-08        2.277e-08         25.0000         
 1                 
