***** HSPICE -- G-2012.06-SP1 32-BIT (Aug 27 2012) win32 ******
 Input File: invdc_chuanxin.sp
 lic:
 lic: FLEXlm: v10.9.8
 lic: USER:   hmr                  HOSTNAME: BF-201911211153
 lic: HOSTID: "0c9d922ee649 00ffaabbccdd 005056c00001 005056c00008 70c94e31fa78 12c94e31fa78 22c94e3
 lic: Using FLEXlm license file:
 lic: D:\synopsys\Hspice_G-2012.06-SP1\license.dat
 lic: Checkout 1 hspice
 lic: License/Maintenance for hspice will expire on 31-dec-2019/2019.12
 lic: NODE LOCKED license on hostid "0c9d922ee649 00ffaabbccdd 005056c00001 005056c00008 70c94e31fa7
 lic:
 init: begin read circuit files,  cpu clock=  1.14E-01
       option search = d:\synopsys\Hspice_G-2012.06-SP1\PARTS\behave\
       option search = d:\synopsys\Hspice_G-2012.06-SP1\PARTS\behave\
       option search = d:\synopsys\Hspice_G-2012.06-SP1\PARTS\AD\
       option search = d:\synopsys\Hspice_G-2012.06-SP1\PARTS\XILINX\
       option search = d:\synopsys\Hspice_G-2012.06-SP1\PARTS\TLINE\
       option search = d:\synopsys\Hspice_G-2012.06-SP1\PARTS\TI\
       option search = d:\synopsys\Hspice_G-2012.06-SP1\PARTS\SIGNET\
       option search = d:\synopsys\Hspice_G-2012.06-SP1\PARTS\PCI\
       option search = d:\synopsys\Hspice_G-2012.06-SP1\PARTS\LIN_TECH\
       option search = d:\synopsys\Hspice_G-2012.06-SP1\PARTS\FET\
       option search = d:\synopsys\Hspice_G-2012.06-SP1\PARTS\DIO\
       option search = d:\synopsys\Hspice_G-2012.06-SP1\PARTS\COMLINE\
       option search = d:\synopsys\Hspice_G-2012.06-SP1\PARTS\BURR_BRN\
       option search = d:\synopsys\Hspice_G-2012.06-SP1\PARTS\BJT\
       option search = d:\synopsys\Hspice_G-2012.06-SP1\PARTS\behave\
       option search = d:\synopsys\Hspice_G-2012.06-SP1\PARTS\AD\
       option post =     2.00
       option runlvl
       option abstol =    1.000E-06
       option reltol =    1.000E-06
       option post
       option ingold
       option post
 init: end read circuit files,  cpu clock=  1.77E-01 peak memory=        36 mb
 init: begin check errors,  cpu clock=  1.77E-01
 init: end check errors,  cpu clock=  1.91E-01 peak memory=        36 mb
 init: begin setup matrix, pivot=     0 cpu clock=  1.91E-01
       establish matrix -- done,  cpu clock=  1.98E-01 peak memory=        36 mb
       re-order matrix -- done,  cpu clock=  2.03E-01 peak memory=        36 mb
 init: end setup matrix,  cpu clock=  2.06E-01 peak memory=        36 mb
 sweep: parameter       parameter1       begin, #sweeps = 193
 parameter: width           =    4.00E-06
 dcop: begin dcop,  cpu clock=  2.17E-01
 dcop: end dcop,  cpu clock=  2.21E-01 peak memory=        36 mb                tot_iter=       7
 output: invdc_chuanxin.mt0
 sweep: tran tran1    begin, stop_t=  1.00E-07 #sweeps=**** cpu clock=  2.30E-01
 tran: time= 1.0250E-08 tot_iter=     161 conv_iter=      51 cpu clock= 2.35E-01
 tran: time= 2.0250E-08 tot_iter=     355 conv_iter=     110 cpu clock= 2.39E-01
 tran: time= 3.0000E-08 tot_iter=     542 conv_iter=     166 cpu clock= 2.43E-01
 tran: time= 4.0250E-08 tot_iter=     733 conv_iter=     225 cpu clock= 2.48E-01
 tran: time= 5.0250E-08 tot_iter=     912 conv_iter=     280 cpu clock= 2.56E-01
 tran: time= 6.0161E-08 tot_iter=    1095 conv_iter=     335 cpu clock= 2.60E-01
 tran: time= 7.0250E-08 tot_iter=    1288 conv_iter=     393 cpu clock= 2.63E-01
 tran: time= 8.0250E-08 tot_iter=    1465 conv_iter=     449 cpu clock= 2.68E-01
 tran: time= 9.0250E-08 tot_iter=    1645 conv_iter=     502 cpu clock= 2.72E-01
 tran: time= 1.0000E-07 tot_iter=    1819 conv_iter=     556 cpu clock= 2.79E-01
 sweep: tran tran1    end,  cpu clock=  2.82E-01 peak memory=        36 mb
 parameter: width           =    4.50E-06
 dcop: begin dcop,  cpu clock=  2.90E-01
 dcop: end dcop,  cpu clock=  2.94E-01 peak memory=        36 mb                tot_iter=      14
 output: invdc_chuanxin.mt0
 sweep: tran tran2    begin, stop_t=  1.00E-07 #sweeps=**** cpu clock=  3.00E-01
 tran: time= 1.0250E-08 tot_iter=     164 conv_iter=      52 cpu clock= 3.04E-01
 tran: time= 2.0250E-08 tot_iter=     345 conv_iter=     106 cpu clock= 3.08E-01
 tran: time= 3.0000E-08 tot_iter=     520 conv_iter=     161 cpu clock= 3.11E-01
 tran: time= 4.0167E-08 tot_iter=     716 conv_iter=     220 cpu clock= 3.14E-01
 tran: time= 5.0250E-08 tot_iter=     907 conv_iter=     278 cpu clock= 3.18E-01
 tran: time= 6.0250E-08 tot_iter=    1096 conv_iter=     334 cpu clock= 3.22E-01
 tran: time= 7.0250E-08 tot_iter=    1282 conv_iter=     389 cpu clock= 3.26E-01
 tran: time= 8.0250E-08 tot_iter=    1461 conv_iter=     445 cpu clock= 3.29E-01
 tran: time= 9.0250E-08 tot_iter=    1650 conv_iter=     500 cpu clock= 3.34E-01
 tran: time= 1.0000E-07 tot_iter=    1840 conv_iter=     556 cpu clock= 3.38E-01
 sweep: tran tran2    end,  cpu clock=  3.41E-01 peak memory=        36 mb
 parameter: width           =    5.00E-06
 dcop: begin dcop,  cpu clock=  3.47E-01
 dcop: end dcop,  cpu clock=  3.51E-01 peak memory=        36 mb                tot_iter=      21
 output: invdc_chuanxin.mt0
 sweep: tran tran3    begin, stop_t=  1.00E-07 #sweeps=**** cpu clock=  3.58E-01
 tran: time= 1.0250E-08 tot_iter=     159 conv_iter=      51 cpu clock= 3.62E-01
 tran: time= 2.0250E-08 tot_iter=     341 conv_iter=     104 cpu clock= 3.67E-01
 tran: time= 3.0000E-08 tot_iter=     534 conv_iter=     160 cpu clock= 3.71E-01
 tran: time= 4.0184E-08 tot_iter=     715 conv_iter=     217 cpu clock= 3.75E-01
 tran: time= 5.0250E-08 tot_iter=     901 conv_iter=     273 cpu clock= 3.79E-01
 tran: time= 6.0250E-08 tot_iter=    1084 conv_iter=     327 cpu clock= 3.83E-01
 tran: time= 7.0250E-08 tot_iter=    1269 conv_iter=     382 cpu clock= 3.86E-01
 tran: time= 8.0250E-08 tot_iter=    1457 conv_iter=     438 cpu clock= 3.90E-01
 tran: time= 9.0250E-08 tot_iter=    1637 conv_iter=     492 cpu clock= 3.94E-01
 tran: time= 1.0000E-07 tot_iter=    1797 conv_iter=     540 cpu clock= 3.97E-01
 sweep: tran tran3    end,  cpu clock=  4.01E-01 peak memory=        36 mb
 parameter: width           =    5.50E-06
 dcop: begin dcop,  cpu clock=  4.07E-01
 dcop: end dcop,  cpu clock=  4.10E-01 peak memory=        36 mb                tot_iter=      28
 output: invdc_chuanxin.mt0
 sweep: tran tran4    begin, stop_t=  1.00E-07 #sweeps=**** cpu clock=  4.16E-01
 tran: time= 1.0181E-08 tot_iter=     161 conv_iter=      51 cpu clock= 4.20E-01
 tran: time= 2.0183E-08 tot_iter=     336 conv_iter=     102 cpu clock= 4.25E-01
 tran: time= 3.0000E-08 tot_iter=     534 conv_iter=     160 cpu clock= 4.29E-01
 tran: time= 4.0182E-08 tot_iter=     720 conv_iter=     214 cpu clock= 4.34E-01
 tran: time= 5.0189E-08 tot_iter=     894 conv_iter=     265 cpu clock= 4.38E-01
 tran: time= 6.0185E-08 tot_iter=    1071 conv_iter=     319 cpu clock= 4.42E-01
 tran: time= 7.0181E-08 tot_iter=    1257 conv_iter=     374 cpu clock= 4.45E-01
 tran: time= 8.0184E-08 tot_iter=    1433 conv_iter=     426 cpu clock= 4.50E-01
 tran: time= 9.0182E-08 tot_iter=    1612 conv_iter=     481 cpu clock= 4.53E-01
 tran: time= 1.0000E-07 tot_iter=    1801 conv_iter=     537 cpu clock= 4.57E-01
 sweep: tran tran4    end,  cpu clock=  4.60E-01 peak memory=        36 mb
 parameter: width           =    6.00E-06
 dcop: begin dcop,  cpu clock=  4.67E-01
 dcop: end dcop,  cpu clock=  4.70E-01 peak memory=        36 mb                tot_iter=      35
 output: invdc_chuanxin.mt0
 sweep: tran tran5    begin, stop_t=  1.00E-07 #sweeps=**** cpu clock=  4.75E-01
 tran: time= 1.0150E-08 tot_iter=     153 conv_iter=      51 cpu clock= 4.79E-01
 tran: time= 2.0157E-08 tot_iter=     326 conv_iter=     105 cpu clock= 4.84E-01
 tran: time= 3.0000E-08 tot_iter=     522 conv_iter=     163 cpu clock= 4.88E-01
 tran: time= 4.0163E-08 tot_iter=     705 conv_iter=     217 cpu clock= 4.91E-01
 tran: time= 5.0163E-08 tot_iter=     885 conv_iter=     270 cpu clock= 4.95E-01
 tran: time= 6.0167E-08 tot_iter=    1078 conv_iter=     327 cpu clock= 4.99E-01
 tran: time= 7.0163E-08 tot_iter=    1263 conv_iter=     381 cpu clock= 5.03E-01
 tran: time= 8.0162E-08 tot_iter=    1446 conv_iter=     435 cpu clock= 5.07E-01
 tran: time= 9.0159E-08 tot_iter=    1641 conv_iter=     493 cpu clock= 5.11E-01
 tran: time= 1.0000E-07 tot_iter=    1828 conv_iter=     549 cpu clock= 5.14E-01
 sweep: tran tran5    end,  cpu clock=  5.19E-01 peak memory=        36 mb
 parameter: width           =    6.50E-06
 dcop: begin dcop,  cpu clock=  5.26E-01
 dcop: end dcop,  cpu clock=  5.30E-01 peak memory=        36 mb                tot_iter=      42
 output: invdc_chuanxin.mt0
 sweep: tran tran6    begin, stop_t=  1.00E-07 #sweeps=**** cpu clock=  5.37E-01
 tran: time= 1.0159E-08 tot_iter=     157 conv_iter=      51 cpu clock= 5.41E-01
 tran: time= 2.0155E-08 tot_iter=     329 conv_iter=     103 cpu clock= 5.45E-01
 tran: time= 3.0000E-08 tot_iter=     498 conv_iter=     154 cpu clock= 5.49E-01
 tran: time= 4.0154E-08 tot_iter=     673 conv_iter=     207 cpu clock= 5.53E-01
 tran: time= 5.0154E-08 tot_iter=     845 conv_iter=     259 cpu clock= 5.57E-01
 tran: time= 6.0154E-08 tot_iter=    1017 conv_iter=     311 cpu clock= 5.61E-01
 tran: time= 7.0154E-08 tot_iter=    1189 conv_iter=     363 cpu clock= 5.64E-01
 tran: time= 8.0154E-08 tot_iter=    1361 conv_iter=     415 cpu clock= 5.70E-01
 tran: time= 9.0154E-08 tot_iter=    1533 conv_iter=     467 cpu clock= 5.74E-01
 tran: time= 1.0000E-07 tot_iter=    1702 conv_iter=     518 cpu clock= 5.78E-01
 sweep: tran tran6    end,  cpu clock=  5.82E-01 peak memory=        36 mb
 parameter: width           =    7.00E-06
 dcop: begin dcop,  cpu clock=  5.89E-01
 dcop: end dcop,  cpu clock=  5.93E-01 peak memory=        36 mb                tot_iter=      49
 output: invdc_chuanxin.mt0
 sweep: tran tran7    begin, stop_t=  1.00E-07 #sweeps=**** cpu clock=  6.00E-01
 tran: time= 1.0162E-08 tot_iter=     167 conv_iter=      54 cpu clock= 6.04E-01
 tran: time= 2.0184E-08 tot_iter=     333 conv_iter=     104 cpu clock= 6.08E-01
 tran: time= 3.0000E-08 tot_iter=     501 conv_iter=     154 cpu clock= 6.12E-01
 tran: time= 4.0173E-08 tot_iter=     673 conv_iter=     206 cpu clock= 6.16E-01
 tran: time= 5.0180E-08 tot_iter=     841 conv_iter=     257 cpu clock= 6.20E-01
 tran: time= 6.0174E-08 tot_iter=    1009 conv_iter=     308 cpu clock= 6.23E-01
 tran: time= 7.0179E-08 tot_iter=    1177 conv_iter=     359 cpu clock= 6.27E-01
 tran: time= 8.0176E-08 tot_iter=    1345 conv_iter=     410 cpu clock= 6.31E-01
 tran: time= 9.0177E-08 tot_iter=    1514 conv_iter=     461 cpu clock= 6.35E-01
 tran: time= 1.0000E-07 tot_iter=    1679 conv_iter=     511 cpu clock= 6.39E-01
 sweep: tran tran7    end,  cpu clock=  6.42E-01 peak memory=        36 mb
 parameter: width           =    7.50E-06
 dcop: begin dcop,  cpu clock=  6.48E-01
 dcop: end dcop,  cpu clock=  6.51E-01 peak memory=        36 mb                tot_iter=      56
 output: invdc_chuanxin.mt0
 sweep: tran tran8    begin, stop_t=  1.00E-07 #sweeps=**** cpu clock=  6.58E-01
 tran: time= 1.0141E-08 tot_iter=     167 conv_iter=      52 cpu clock= 6.61E-01
 tran: time= 2.0187E-08 tot_iter=     340 conv_iter=     104 cpu clock= 6.65E-01
 tran: time= 3.0000E-08 tot_iter=     507 conv_iter=     155 cpu clock= 6.70E-01
 tran: time= 4.0180E-08 tot_iter=     681 conv_iter=     208 cpu clock= 6.74E-01
 tran: time= 5.0145E-08 tot_iter=     867 conv_iter=     266 cpu clock= 6.78E-01
 tran: time= 6.0186E-08 tot_iter=    1037 conv_iter=     318 cpu clock= 6.82E-01
 tran: time= 7.0184E-08 tot_iter=    1207 conv_iter=     370 cpu clock= 6.86E-01
 tran: time= 8.0179E-08 tot_iter=    1376 conv_iter=     422 cpu clock= 6.90E-01
 tran: time= 9.0145E-08 tot_iter=    1558 conv_iter=     478 cpu clock= 6.94E-01
 tran: time= 1.0000E-07 tot_iter=    1726 conv_iter=     529 cpu clock= 6.98E-01
 sweep: tran tran8    end,  cpu clock=  7.02E-01 peak memory=        36 mb
 parameter: width           =    8.00E-06
 dcop: begin dcop,  cpu clock=  7.09E-01
 dcop: end dcop,  cpu clock=  7.13E-01 peak memory=        36 mb                tot_iter=      63
 output: invdc_chuanxin.mt0
 sweep: tran tran9    begin, stop_t=  1.00E-07 #sweeps=**** cpu clock=  7.20E-01
 tran: time= 1.0134E-08 tot_iter=     147 conv_iter=      48 cpu clock= 7.24E-01
 tran: time= 2.0125E-08 tot_iter=     303 conv_iter=      96 cpu clock= 7.28E-01
 tran: time= 3.0000E-08 tot_iter=     457 conv_iter=     143 cpu clock= 7.32E-01
 tran: time= 4.0125E-08 tot_iter=     617 conv_iter=     192 cpu clock= 7.37E-01
 tran: time= 5.0125E-08 tot_iter=     774 conv_iter=     240 cpu clock= 7.42E-01
 tran: time= 6.0125E-08 tot_iter=     931 conv_iter=     288 cpu clock= 7.46E-01
 tran: time= 7.0125E-08 tot_iter=    1088 conv_iter=     336 cpu clock= 7.51E-01
 tran: time= 8.0125E-08 tot_iter=    1245 conv_iter=     384 cpu clock= 7.55E-01
 tran: time= 9.0125E-08 tot_iter=    1402 conv_iter=     432 cpu clock= 7.59E-01
 tran: time= 1.0000E-07 tot_iter=    1556 conv_iter=     479 cpu clock= 7.63E-01
 sweep: tran tran9    end,  cpu clock=  7.68E-01 peak memory=        36 mb
 parameter: width           =    8.50E-06
 dcop: begin dcop,  cpu clock=  7.75E-01
 dcop: end dcop,  cpu clock=  7.78E-01 peak memory=        36 mb                tot_iter=      70
 output: invdc_chuanxin.mt0
 sweep: tran tran10   begin, stop_t=  1.00E-07 #sweeps=**** cpu clock=  7.86E-01
 tran: time= 1.0173E-08 tot_iter=     155 conv_iter=      49 cpu clock= 7.90E-01
 tran: time= 2.0105E-08 tot_iter=     328 conv_iter=     101 cpu clock= 7.94E-01
 tran: time= 3.0000E-08 tot_iter=     506 conv_iter=     156 cpu clock= 7.98E-01
 tran: time= 4.0105E-08 tot_iter=     688 conv_iter=     209 cpu clock= 8.04E-01
 tran: time= 5.0173E-08 tot_iter=     862 conv_iter=     262 cpu clock= 8.08E-01
 tran: time= 6.0105E-08 tot_iter=    1035 conv_iter=     314 cpu clock= 8.12E-01
 tran: time= 7.0191E-08 tot_iter=    1216 conv_iter=     370 cpu clock= 8.16E-01
 tran: time= 8.0105E-08 tot_iter=    1395 conv_iter=     422 cpu clock= 8.20E-01
 tran: time= 9.0173E-08 tot_iter=    1569 conv_iter=     475 cpu clock= 8.24E-01
 tran: time= 1.0000E-07 tot_iter=    1738 conv_iter=     526 cpu clock= 8.28E-01
 sweep: tran tran10   end,  cpu clock=  8.31E-01 peak memory=        36 mb
 parameter: width           =    9.00E-06
 dcop: begin dcop,  cpu clock=  8.39E-01
 dcop: end dcop,  cpu clock=  8.42E-01 peak memory=        36 mb                tot_iter=      77
 output: invdc_chuanxin.mt0
 sweep: tran tran11   begin, stop_t=  1.00E-07 #sweeps=**** cpu clock=  8.47E-01
 tran: time= 1.0250E-08 tot_iter=     162 conv_iter=      52 cpu clock= 8.52E-01
 tran: time= 2.0160E-08 tot_iter=     326 conv_iter=     103 cpu clock= 8.56E-01
 tran: time= 3.0000E-08 tot_iter=     499 conv_iter=     155 cpu clock= 8.59E-01
 tran: time= 4.0179E-08 tot_iter=     692 conv_iter=     212 cpu clock= 8.63E-01
 tran: time= 5.0183E-08 tot_iter=     887 conv_iter=     268 cpu clock= 8.67E-01
 tran: time= 6.0196E-08 tot_iter=    1076 conv_iter=     324 cpu clock= 8.72E-01
 tran: time= 7.0216E-08 tot_iter=    1256 conv_iter=     378 cpu clock= 8.75E-01
 tran: time= 8.0191E-08 tot_iter=    1428 conv_iter=     431 cpu clock= 8.79E-01
 tran: time= 9.0181E-08 tot_iter=    1610 conv_iter=     485 cpu clock= 8.83E-01
 tran: time= 1.0000E-07 tot_iter=    1797 conv_iter=     540 cpu clock= 8.87E-01
 sweep: tran tran11   end,  cpu clock=  8.91E-01 peak memory=        36 mb
 parameter: width           =    9.50E-06
 dcop: begin dcop,  cpu clock=  8.97E-01
 dcop: end dcop,  cpu clock=  9.02E-01 peak memory=        36 mb                tot_iter=      84
 output: invdc_chuanxin.mt0
 sweep: tran tran12   begin, stop_t=  1.00E-07 #sweeps=**** cpu clock=  9.08E-01
 tran: time= 1.0138E-08 tot_iter=     154 conv_iter=      49 cpu clock= 9.13E-01
 tran: time= 2.0140E-08 tot_iter=     333 conv_iter=     105 cpu clock= 9.18E-01
 tran: time= 3.0000E-08 tot_iter=     501 conv_iter=     157 cpu clock= 9.24E-01
 tran: time= 4.0149E-08 tot_iter=     649 conv_iter=     205 cpu clock= 9.28E-01
 tran: time= 5.0131E-08 tot_iter=     825 conv_iter=     260 cpu clock= 9.33E-01
 tran: time= 6.0138E-08 tot_iter=     986 conv_iter=     310 cpu clock= 9.38E-01
 tran: time= 7.0137E-08 tot_iter=    1171 conv_iter=     367 cpu clock= 9.43E-01
 tran: time= 8.0133E-08 tot_iter=    1344 conv_iter=     420 cpu clock= 9.47E-01
 tran: time= 9.0137E-08 tot_iter=    1504 conv_iter=     470 cpu clock= 9.52E-01
 tran: time= 1.0000E-07 tot_iter=    1672 conv_iter=     522 cpu clock= 9.56E-01
 sweep: tran tran12   end,  cpu clock=  9.60E-01 peak memory=        36 mb
 parameter: width           =    1.00E-05
 dcop: begin dcop,  cpu clock=  9.68E-01
 dcop: end dcop,  cpu clock=  9.72E-01 peak memory=        36 mb                tot_iter=      91
 output: invdc_chuanxin.mt0
 sweep: tran tran13   begin, stop_t=  1.00E-07 #sweeps=**** cpu clock=  9.78E-01
 tran: time= 1.0136E-08 tot_iter=     176 conv_iter=      55 cpu clock= 9.82E-01
 tran: time= 2.0150E-08 tot_iter=     377 conv_iter=     116 cpu clock= 9.87E-01
 tran: time= 3.0000E-08 tot_iter=     542 conv_iter=     168 cpu clock= 9.91E-01
 tran: time= 4.0128E-08 tot_iter=     750 conv_iter=     229 cpu clock= 9.95E-01
 tran: time= 5.0155E-08 tot_iter=     958 conv_iter=     290 cpu clock= 1.00E+00
 tran: time= 6.0151E-08 tot_iter=    1131 conv_iter=     344 cpu clock= 1.01E+00
 tran: time= 7.0121E-08 tot_iter=    1306 conv_iter=     399 cpu clock= 1.01E+00
 tran: time= 8.0159E-08 tot_iter=    1521 conv_iter=     463 cpu clock= 1.01E+00
 tran: time= 9.0141E-08 tot_iter=    1695 conv_iter=     517 cpu clock= 1.02E+00
 tran: time= 1.0000E-07 tot_iter=    1895 conv_iter=     576 cpu clock= 1.02E+00
 sweep: tran tran13   end,  cpu clock=  1.03E+00 peak memory=        36 mb
 parameter: width           =    1.05E-05
 dcop: begin dcop,  cpu clock=  1.04E+00
 dcop: end dcop,  cpu clock=  1.04E+00 peak memory=        36 mb                tot_iter=      98
 output: invdc_chuanxin.mt0
 sweep: tran tran14   begin, stop_t=  1.00E-07 #sweeps=**** cpu clock=  1.05E+00
 tran: time= 1.0140E-08 tot_iter=     161 conv_iter=      51 cpu clock= 1.05E+00
 tran: time= 2.0064E-08 tot_iter=     348 conv_iter=     110 cpu clock= 1.06E+00
 tran: time= 3.0000E-08 tot_iter=     501 conv_iter=     159 cpu clock= 1.06E+00
 tran: time= 4.0120E-08 tot_iter=     668 conv_iter=     212 cpu clock= 1.06E+00
 tran: time= 5.0113E-08 tot_iter=     845 conv_iter=     267 cpu clock= 1.07E+00
 tran: time= 6.0117E-08 tot_iter=    1047 conv_iter=     327 cpu clock= 1.07E+00
 tran: time= 7.0110E-08 tot_iter=    1223 conv_iter=     382 cpu clock= 1.07E+00
 tran: time= 8.0056E-08 tot_iter=    1412 conv_iter=     439 cpu clock= 1.08E+00
 tran: time= 9.0143E-08 tot_iter=    1587 conv_iter=     496 cpu clock= 1.08E+00
 tran: time= 1.0000E-07 tot_iter=    1754 conv_iter=     549 cpu clock= 1.09E+00
 sweep: tran tran14   end,  cpu clock=  1.09E+00 peak memory=        36 mb
 parameter: width           =    1.10E-05
 dcop: begin dcop,  cpu clock=  1.10E+00
 dcop: end dcop,  cpu clock=  1.10E+00 peak memory=        36 mb                tot_iter=     105
 output: invdc_chuanxin.mt0
 sweep: tran tran15   begin, stop_t=  1.00E-07 #sweeps=**** cpu clock=  1.11E+00
 tran: time= 1.0212E-08 tot_iter=     171 conv_iter=      55 cpu clock= 1.11E+00
 tran: time= 2.0212E-08 tot_iter=     358 conv_iter=     112 cpu clock= 1.12E+00
 tran: time= 3.0000E-08 tot_iter=     517 conv_iter=     161 cpu clock= 1.12E+00
 tran: time= 4.0119E-08 tot_iter=     679 conv_iter=     212 cpu clock= 1.13E+00
 tran: time= 5.0084E-08 tot_iter=     835 conv_iter=     262 cpu clock= 1.13E+00
 tran: time= 6.0131E-08 tot_iter=    1010 conv_iter=     316 cpu clock= 1.14E+00
 tran: time= 7.0102E-08 tot_iter=    1154 conv_iter=     363 cpu clock= 1.14E+00
 tran: time= 8.0164E-08 tot_iter=    1332 conv_iter=     417 cpu clock= 1.14E+00
 tran: time= 9.0210E-08 tot_iter=    1519 conv_iter=     475 cpu clock= 1.15E+00
 tran: time= 1.0000E-07 tot_iter=    1679 conv_iter=     524 cpu clock= 1.15E+00
 sweep: tran tran15   end,  cpu clock=  1.16E+00 peak memory=        36 mb
 parameter: width           =    1.15E-05
 dcop: begin dcop,  cpu clock=  1.16E+00
 dcop: end dcop,  cpu clock=  1.17E+00 peak memory=        36 mb                tot_iter=     112
 output: invdc_chuanxin.mt0
 sweep: tran tran16   begin, stop_t=  1.00E-07 #sweeps=**** cpu clock=  1.17E+00
 tran: time= 1.0218E-08 tot_iter=     184 conv_iter=      57 cpu clock= 1.18E+00
 tran: time= 2.0207E-08 tot_iter=     343 conv_iter=     107 cpu clock= 1.18E+00
 tran: time= 3.0000E-08 tot_iter=     503 conv_iter=     156 cpu clock= 1.19E+00
 tran: time= 4.0213E-08 tot_iter=     666 conv_iter=     207 cpu clock= 1.19E+00
 tran: time= 5.0248E-08 tot_iter=     833 conv_iter=     260 cpu clock= 1.19E+00
 tran: time= 6.0077E-08 tot_iter=    1017 conv_iter=     316 cpu clock= 1.20E+00
 tran: time= 7.0195E-08 tot_iter=    1183 conv_iter=     370 cpu clock= 1.20E+00
 tran: time= 8.0225E-08 tot_iter=    1358 conv_iter=     425 cpu clock= 1.21E+00
 tran: time= 9.0220E-08 tot_iter=    1550 conv_iter=     484 cpu clock= 1.21E+00
 tran: time= 1.0000E-07 tot_iter=    1708 conv_iter=     533 cpu clock= 1.22E+00
 sweep: tran tran16   end,  cpu clock=  1.22E+00 peak memory=        36 mb
 parameter: width           =    1.20E-05
 dcop: begin dcop,  cpu clock=  1.23E+00
 dcop: end dcop,  cpu clock=  1.23E+00 peak memory=        36 mb                tot_iter=     119
 output: invdc_chuanxin.mt0
 sweep: tran tran17   begin, stop_t=  1.00E-07 #sweeps=**** cpu clock=  1.24E+00
 tran: time= 1.0245E-08 tot_iter=     177 conv_iter=      55 cpu clock= 1.24E+00
 tran: time= 2.0211E-08 tot_iter=     370 conv_iter=     113 cpu clock= 1.24E+00
 tran: time= 3.0000E-08 tot_iter=     550 conv_iter=     169 cpu clock= 1.25E+00
 tran: time= 4.0190E-08 tot_iter=     727 conv_iter=     225 cpu clock= 1.26E+00
 tran: time= 5.0171E-08 tot_iter=     905 conv_iter=     280 cpu clock= 1.26E+00
 tran: time= 6.0250E-08 tot_iter=    1068 conv_iter=     332 cpu clock= 1.26E+00
 tran: time= 7.0211E-08 tot_iter=    1260 conv_iter=     390 cpu clock= 1.27E+00
 tran: time= 8.0183E-08 tot_iter=    1442 conv_iter=     447 cpu clock= 1.27E+00
 tran: time= 9.0216E-08 tot_iter=    1599 conv_iter=     497 cpu clock= 1.28E+00
 tran: time= 1.0000E-07 tot_iter=    1784 conv_iter=     553 cpu clock= 1.28E+00
 sweep: tran tran17   end,  cpu clock=  1.28E+00 peak memory=        36 mb
 parameter: width           =    1.25E-05
 dcop: begin dcop,  cpu clock=  1.29E+00
 dcop: end dcop,  cpu clock=  1.29E+00 peak memory=        36 mb                tot_iter=     126
 output: invdc_chuanxin.mt0
 sweep: tran tran18   begin, stop_t=  1.00E-07 #sweeps=**** cpu clock=  1.30E+00
 tran: time= 1.0246E-08 tot_iter=     176 conv_iter=      56 cpu clock= 1.31E+00
 tran: time= 2.0250E-08 tot_iter=     371 conv_iter=     114 cpu clock= 1.31E+00
 tran: time= 3.0000E-08 tot_iter=     553 conv_iter=     168 cpu clock= 1.31E+00
 tran: time= 4.0140E-08 tot_iter=     724 conv_iter=     222 cpu clock= 1.32E+00
 tran: time= 5.0081E-08 tot_iter=     892 conv_iter=     275 cpu clock= 1.32E+00
 tran: time= 6.0250E-08 tot_iter=    1061 conv_iter=     329 cpu clock= 1.33E+00
 tran: time= 7.0250E-08 tot_iter=    1216 conv_iter=     376 cpu clock= 1.33E+00
 tran: time= 8.0139E-08 tot_iter=    1388 conv_iter=     429 cpu clock= 1.33E+00
 tran: time= 9.0141E-08 tot_iter=    1557 conv_iter=     482 cpu clock= 1.34E+00
 tran: time= 1.0000E-07 tot_iter=    1729 conv_iter=     536 cpu clock= 1.34E+00
 sweep: tran tran18   end,  cpu clock=  1.35E+00 peak memory=        36 mb
 parameter: width           =    1.30E-05
 dcop: begin dcop,  cpu clock=  1.35E+00
 dcop: end dcop,  cpu clock=  1.36E+00 peak memory=        36 mb                tot_iter=     133
 output: invdc_chuanxin.mt0
 sweep: tran tran19   begin, stop_t=  1.00E-07 #sweeps=**** cpu clock=  1.36E+00
 tran: time= 1.0242E-08 tot_iter=     189 conv_iter=      59 cpu clock= 1.37E+00
 tran: time= 2.0228E-08 tot_iter=     341 conv_iter=     107 cpu clock= 1.37E+00
 tran: time= 3.0000E-08 tot_iter=     510 conv_iter=     159 cpu clock= 1.38E+00
 tran: time= 4.0220E-08 tot_iter=     686 conv_iter=     213 cpu clock= 1.38E+00
 tran: time= 5.0250E-08 tot_iter=     883 conv_iter=     273 cpu clock= 1.39E+00
 tran: time= 6.0152E-08 tot_iter=    1053 conv_iter=     327 cpu clock= 1.39E+00
 tran: time= 7.0250E-08 tot_iter=    1222 conv_iter=     380 cpu clock= 1.40E+00
 tran: time= 8.0231E-08 tot_iter=    1383 conv_iter=     432 cpu clock= 1.40E+00
 tran: time= 9.0229E-08 tot_iter=    1578 conv_iter=     491 cpu clock= 1.40E+00
 tran: time= 1.0000E-07 tot_iter=    1747 conv_iter=     543 cpu clock= 1.41E+00
 sweep: tran tran19   end,  cpu clock=  1.41E+00 peak memory=        36 mb
 parameter: width           =    1.35E-05
 dcop: begin dcop,  cpu clock=  1.71E+00
 dcop: end dcop,  cpu clock=  1.72E+00 peak memory=        36 mb                tot_iter=     140
 output: invdc_chuanxin.mt0
 sweep: tran tran20   begin, stop_t=  1.00E-07 #sweeps=**** cpu clock=  1.72E+00
 tran: time= 1.0250E-08 tot_iter=     188 conv_iter=      58 cpu clock= 1.73E+00
 tran: time= 2.0250E-08 tot_iter=     362 conv_iter=     111 cpu clock= 1.73E+00
 tran: time= 3.0000E-08 tot_iter=     516 conv_iter=     159 cpu clock= 1.74E+00
 tran: time= 4.0250E-08 tot_iter=     680 conv_iter=     212 cpu clock= 1.74E+00
 tran: time= 5.0237E-08 tot_iter=     850 conv_iter=     265 cpu clock= 1.75E+00
 tran: time= 6.0227E-08 tot_iter=    1015 conv_iter=     318 cpu clock= 1.75E+00
 tran: time= 7.0245E-08 tot_iter=    1185 conv_iter=     371 cpu clock= 1.75E+00
 tran: time= 8.0250E-08 tot_iter=    1356 conv_iter=     425 cpu clock= 1.76E+00
 tran: time= 9.0225E-08 tot_iter=    1536 conv_iter=     480 cpu clock= 1.76E+00
 tran: time= 1.0000E-07 tot_iter=    1707 conv_iter=     532 cpu clock= 1.77E+00
 sweep: tran tran20   end,  cpu clock=  1.77E+00 peak memory=        36 mb
 parameter: width           =    1.40E-05
 dcop: begin dcop,  cpu clock=  1.78E+00
 dcop: end dcop,  cpu clock=  1.78E+00 peak memory=        36 mb                tot_iter=     147
 output: invdc_chuanxin.mt0
 sweep: tran tran21   begin, stop_t=  1.00E-07 #sweeps=**** cpu clock=  1.79E+00
 tran: time= 1.0250E-08 tot_iter=     199 conv_iter=      61 cpu clock= 1.79E+00
 tran: time= 2.0122E-08 tot_iter=     372 conv_iter=     115 cpu clock= 1.80E+00
 tran: time= 3.0000E-08 tot_iter=     523 conv_iter=     163 cpu clock= 1.80E+00
 tran: time= 4.0156E-08 tot_iter=     700 conv_iter=     218 cpu clock= 1.80E+00
 tran: time= 5.0232E-08 tot_iter=     862 conv_iter=     269 cpu clock= 1.81E+00
 tran: time= 6.0163E-08 tot_iter=    1035 conv_iter=     323 cpu clock= 1.81E+00
 tran: time= 7.0155E-08 tot_iter=    1206 conv_iter=     377 cpu clock= 1.82E+00
 tran: time= 8.0233E-08 tot_iter=    1368 conv_iter=     428 cpu clock= 1.82E+00
 tran: time= 9.0147E-08 tot_iter=    1540 conv_iter=     482 cpu clock= 1.82E+00
 tran: time= 1.0000E-07 tot_iter=    1727 conv_iter=     539 cpu clock= 1.83E+00
 sweep: tran tran21   end,  cpu clock=  1.83E+00 peak memory=        36 mb
 parameter: width           =    1.45E-05
 dcop: begin dcop,  cpu clock=  1.84E+00
 dcop: end dcop,  cpu clock=  1.84E+00 peak memory=        36 mb                tot_iter=     154
 output: invdc_chuanxin.mt0
 sweep: tran tran22   begin, stop_t=  1.00E-07 #sweeps=**** cpu clock=  1.85E+00
 tran: time= 1.0183E-08 tot_iter=     187 conv_iter=      59 cpu clock= 1.86E+00
 tran: time= 2.0179E-08 tot_iter=     359 conv_iter=     113 cpu clock= 1.86E+00
 tran: time= 3.0000E-08 tot_iter=     528 conv_iter=     166 cpu clock= 1.86E+00
 tran: time= 4.0198E-08 tot_iter=     698 conv_iter=     221 cpu clock= 1.87E+00
 tran: time= 5.0250E-08 tot_iter=     875 conv_iter=     276 cpu clock= 1.88E+00
 tran: time= 6.0250E-08 tot_iter=    1037 conv_iter=     327 cpu clock= 1.88E+00
 tran: time= 7.0250E-08 tot_iter=    1212 conv_iter=     382 cpu clock= 1.88E+00
 tran: time= 8.0214E-08 tot_iter=    1379 conv_iter=     434 cpu clock= 1.89E+00
 tran: time= 9.0250E-08 tot_iter=    1555 conv_iter=     489 cpu clock= 1.89E+00
 tran: time= 1.0000E-07 tot_iter=    1738 conv_iter=     544 cpu clock= 1.90E+00
 sweep: tran tran22   end,  cpu clock=  1.90E+00 peak memory=        36 mb
 parameter: width           =    1.50E-05
 dcop: begin dcop,  cpu clock=  1.91E+00
 dcop: end dcop,  cpu clock=  1.91E+00 peak memory=        36 mb                tot_iter=     161
 output: invdc_chuanxin.mt0
 sweep: tran tran23   begin, stop_t=  1.00E-07 #sweeps=**** cpu clock=  1.92E+00
 tran: time= 1.0250E-08 tot_iter=     189 conv_iter=      59 cpu clock= 1.92E+00
 tran: time= 2.0250E-08 tot_iter=     354 conv_iter=     113 cpu clock= 1.93E+00
 tran: time= 3.0000E-08 tot_iter=     511 conv_iter=     162 cpu clock= 1.93E+00
 tran: time= 4.0182E-08 tot_iter=     688 conv_iter=     218 cpu clock= 1.94E+00
 tran: time= 5.0250E-08 tot_iter=     858 conv_iter=     272 cpu clock= 1.94E+00
 tran: time= 6.0250E-08 tot_iter=    1043 conv_iter=     329 cpu clock= 1.95E+00
 tran: time= 7.0250E-08 tot_iter=    1224 conv_iter=     385 cpu clock= 1.95E+00
 tran: time= 8.0244E-08 tot_iter=    1399 conv_iter=     439 cpu clock= 1.95E+00
 tran: time= 9.0243E-08 tot_iter=    1572 conv_iter=     493 cpu clock= 1.96E+00
 tran: time= 1.0000E-07 tot_iter=    1745 conv_iter=     547 cpu clock= 1.96E+00
 sweep: tran tran23   end,  cpu clock=  1.97E+00 peak memory=        36 mb
 parameter: width           =    1.55E-05
 dcop: begin dcop,  cpu clock=  1.98E+00
 dcop: end dcop,  cpu clock=  1.98E+00 peak memory=        36 mb                tot_iter=     168
 output: invdc_chuanxin.mt0
 sweep: tran tran24   begin, stop_t=  1.00E-07 #sweeps=**** cpu clock=  1.99E+00
 tran: time= 1.0250E-08 tot_iter=     191 conv_iter=      61 cpu clock= 1.99E+00
 tran: time= 2.0250E-08 tot_iter=     372 conv_iter=     119 cpu clock= 1.99E+00
 tran: time= 3.0000E-08 tot_iter=     543 conv_iter=     174 cpu clock= 2.00E+00
 tran: time= 4.0250E-08 tot_iter=     723 conv_iter=     230 cpu clock= 2.00E+00
 tran: time= 5.0250E-08 tot_iter=     903 conv_iter=     284 cpu clock= 2.01E+00
 tran: time= 6.0223E-08 tot_iter=    1082 conv_iter=     339 cpu clock= 2.01E+00
 tran: time= 7.0250E-08 tot_iter=    1264 conv_iter=     395 cpu clock= 2.02E+00
 tran: time= 8.0250E-08 tot_iter=    1439 conv_iter=     449 cpu clock= 2.02E+00
 tran: time= 9.0250E-08 tot_iter=    1627 conv_iter=     506 cpu clock= 2.03E+00
 tran: time= 1.0000E-07 tot_iter=    1806 conv_iter=     561 cpu clock= 2.03E+00
 sweep: tran tran24   end,  cpu clock=  2.03E+00 peak memory=        36 mb
 parameter: width           =    1.60E-05
 dcop: begin dcop,  cpu clock=  2.04E+00
 dcop: end dcop,  cpu clock=  2.05E+00 peak memory=        36 mb                tot_iter=     175
 output: invdc_chuanxin.mt0
 sweep: tran tran25   begin, stop_t=  1.00E-07 #sweeps=**** cpu clock=  2.05E+00
 tran: time= 1.0250E-08 tot_iter=     203 conv_iter=      62 cpu clock= 2.06E+00
 tran: time= 2.0250E-08 tot_iter=     382 conv_iter=     117 cpu clock= 2.06E+00
 tran: time= 3.0000E-08 tot_iter=     558 conv_iter=     171 cpu clock= 2.07E+00
 tran: time= 4.0250E-08 tot_iter=     738 conv_iter=     227 cpu clock= 2.07E+00
 tran: time= 5.0250E-08 tot_iter=     916 conv_iter=     282 cpu clock= 2.08E+00
 tran: time= 6.0250E-08 tot_iter=    1094 conv_iter=     337 cpu clock= 2.08E+00
 tran: time= 7.0250E-08 tot_iter=    1272 conv_iter=     392 cpu clock= 2.08E+00
 tran: time= 8.0250E-08 tot_iter=    1450 conv_iter=     447 cpu clock= 2.09E+00
 tran: time= 9.0250E-08 tot_iter=    1628 conv_iter=     502 cpu clock= 2.09E+00
 tran: time= 1.0000E-07 tot_iter=    1804 conv_iter=     556 cpu clock= 2.10E+00
 sweep: tran tran25   end,  cpu clock=  2.10E+00 peak memory=        36 mb
 parameter: width           =    1.65E-05
 dcop: begin dcop,  cpu clock=  2.11E+00
 dcop: end dcop,  cpu clock=  2.11E+00 peak memory=        36 mb                tot_iter=     182
 output: invdc_chuanxin.mt0
 sweep: tran tran26   begin, stop_t=  1.00E-07 #sweeps=**** cpu clock=  2.12E+00
 tran: time= 1.0250E-08 tot_iter=     190 conv_iter=      58 cpu clock= 2.12E+00
 tran: time= 2.0250E-08 tot_iter=     358 conv_iter=     111 cpu clock= 2.12E+00
 tran: time= 3.0000E-08 tot_iter=     529 conv_iter=     163 cpu clock= 2.13E+00
 tran: time= 4.0250E-08 tot_iter=     704 conv_iter=     217 cpu clock= 2.13E+00
 tran: time= 5.0250E-08 tot_iter=     867 conv_iter=     268 cpu clock= 2.14E+00
 tran: time= 6.0250E-08 tot_iter=    1028 conv_iter=     319 cpu clock= 2.14E+00
 tran: time= 7.0250E-08 tot_iter=    1190 conv_iter=     370 cpu clock= 2.15E+00
 tran: time= 8.0250E-08 tot_iter=    1351 conv_iter=     421 cpu clock= 2.15E+00
 tran: time= 9.0250E-08 tot_iter=    1515 conv_iter=     473 cpu clock= 2.15E+00
 tran: time= 1.0000E-07 tot_iter=    1672 conv_iter=     523 cpu clock= 2.16E+00
 sweep: tran tran26   end,  cpu clock=  2.16E+00 peak memory=        36 mb
 parameter: width           =    1.70E-05
 dcop: begin dcop,  cpu clock=  2.17E+00
 dcop: end dcop,  cpu clock=  2.17E+00 peak memory=        36 mb                tot_iter=     189
 output: invdc_chuanxin.mt0
 sweep: tran tran27   begin, stop_t=  1.00E-07 #sweeps=**** cpu clock=  2.18E+00
 tran: time= 1.0129E-08 tot_iter=     185 conv_iter=      58 cpu clock= 2.18E+00
 tran: time= 2.0250E-08 tot_iter=     344 conv_iter=     110 cpu clock= 2.19E+00
 tran: time= 3.0000E-08 tot_iter=     500 conv_iter=     160 cpu clock= 2.19E+00
 tran: time= 4.0250E-08 tot_iter=     674 conv_iter=     213 cpu clock= 2.19E+00
 tran: time= 5.0250E-08 tot_iter=     843 conv_iter=     265 cpu clock= 2.20E+00
 tran: time= 6.0250E-08 tot_iter=    1012 conv_iter=     317 cpu clock= 2.20E+00
 tran: time= 7.0250E-08 tot_iter=    1181 conv_iter=     369 cpu clock= 2.21E+00
 tran: time= 8.0250E-08 tot_iter=    1350 conv_iter=     421 cpu clock= 2.21E+00
 tran: time= 9.0250E-08 tot_iter=    1519 conv_iter=     473 cpu clock= 2.22E+00
 tran: time= 1.0000E-07 tot_iter=    1686 conv_iter=     524 cpu clock= 2.22E+00
 sweep: tran tran27   end,  cpu clock=  2.22E+00 peak memory=        36 mb
 parameter: width           =    1.75E-05
 dcop: begin dcop,  cpu clock=  2.23E+00
 dcop: end dcop,  cpu clock=  2.23E+00 peak memory=        36 mb                tot_iter=     196
 output: invdc_chuanxin.mt0
 sweep: tran tran28   begin, stop_t=  1.00E-07 #sweeps=**** cpu clock=  2.24E+00
 tran: time= 1.0250E-08 tot_iter=     186 conv_iter=      59 cpu clock= 2.24E+00
 tran: time= 2.0250E-08 tot_iter=     352 conv_iter=     111 cpu clock= 2.25E+00
 tran: time= 3.0000E-08 tot_iter=     520 conv_iter=     162 cpu clock= 2.25E+00
 tran: time= 4.0093E-08 tot_iter=     695 conv_iter=     216 cpu clock= 2.26E+00
 tran: time= 5.0125E-08 tot_iter=     892 conv_iter=     276 cpu clock= 2.26E+00
 tran: time= 6.0250E-08 tot_iter=    1060 conv_iter=     329 cpu clock= 2.29E+00
 tran: time= 7.0250E-08 tot_iter=    1227 conv_iter=     381 cpu clock= 2.30E+00
 tran: time= 8.0250E-08 tot_iter=    1393 conv_iter=     433 cpu clock= 2.30E+00
 tran: time= 9.0250E-08 tot_iter=    1563 conv_iter=     485 cpu clock= 2.31E+00
 tran: time= 1.0000E-07 tot_iter=    1734 conv_iter=     537 cpu clock= 2.31E+00
 sweep: tran tran28   end,  cpu clock=  2.31E+00 peak memory=        36 mb
 parameter: width           =    1.80E-05
 dcop: begin dcop,  cpu clock=  2.32E+00
 dcop: end dcop,  cpu clock=  2.33E+00 peak memory=        36 mb                tot_iter=     203
 output: invdc_chuanxin.mt0
 sweep: tran tran29   begin, stop_t=  1.00E-07 #sweeps=**** cpu clock=  2.33E+00
 tran: time= 1.0080E-08 tot_iter=     178 conv_iter=      59 cpu clock= 2.33E+00
 tran: time= 2.0099E-08 tot_iter=     360 conv_iter=     118 cpu clock= 2.34E+00
 tran: time= 3.0000E-08 tot_iter=     550 conv_iter=     177 cpu clock= 2.34E+00
 tran: time= 4.0168E-08 tot_iter=     770 conv_iter=     242 cpu clock= 2.35E+00
 tran: time= 5.0250E-08 tot_iter=     941 conv_iter=     297 cpu clock= 2.35E+00
 tran: time= 6.0250E-08 tot_iter=    1118 conv_iter=     351 cpu clock= 2.36E+00
 tran: time= 7.0250E-08 tot_iter=    1288 conv_iter=     403 cpu clock= 2.36E+00
 tran: time= 8.0250E-08 tot_iter=    1457 conv_iter=     455 cpu clock= 2.37E+00
 tran: time= 9.0250E-08 tot_iter=    1626 conv_iter=     507 cpu clock= 2.37E+00
 tran: time= 1.0000E-07 tot_iter=    1793 conv_iter=     558 cpu clock= 2.37E+00
 sweep: tran tran29   end,  cpu clock=  2.38E+00 peak memory=        36 mb
 parameter: width           =    1.85E-05
 dcop: begin dcop,  cpu clock=  2.38E+00
 dcop: end dcop,  cpu clock=  2.39E+00 peak memory=        36 mb                tot_iter=     210
 output: invdc_chuanxin.mt0
 sweep: tran tran30   begin, stop_t=  1.00E-07 #sweeps=**** cpu clock=  2.39E+00
 tran: time= 1.0250E-08 tot_iter=     183 conv_iter=      58 cpu clock= 2.40E+00
 tran: time= 2.0250E-08 tot_iter=     348 conv_iter=     110 cpu clock= 2.40E+00
 tran: time= 3.0000E-08 tot_iter=     511 conv_iter=     161 cpu clock= 2.40E+00
 tran: time= 4.0250E-08 tot_iter=     680 conv_iter=     214 cpu clock= 2.41E+00
 tran: time= 5.0244E-08 tot_iter=     846 conv_iter=     266 cpu clock= 2.41E+00
 tran: time= 6.0250E-08 tot_iter=    1016 conv_iter=     317 cpu clock= 2.42E+00
 tran: time= 7.0250E-08 tot_iter=    1181 conv_iter=     369 cpu clock= 2.42E+00
 tran: time= 8.0250E-08 tot_iter=    1346 conv_iter=     421 cpu clock= 2.43E+00
 tran: time= 9.0250E-08 tot_iter=    1512 conv_iter=     473 cpu clock= 2.43E+00
 tran: time= 1.0000E-07 tot_iter=    1676 conv_iter=     524 cpu clock= 2.43E+00
 sweep: tran tran30   end,  cpu clock=  2.44E+00 peak memory=        36 mb
 parameter: width           =    1.90E-05
 dcop: begin dcop,  cpu clock=  2.44E+00
 dcop: end dcop,  cpu clock=  2.45E+00 peak memory=        36 mb                tot_iter=     217
 output: invdc_chuanxin.mt0
 sweep: tran tran31   begin, stop_t=  1.00E-07 #sweeps=**** cpu clock=  2.45E+00
 tran: time= 1.0158E-08 tot_iter=     177 conv_iter=      56 cpu clock= 2.46E+00
 tran: time= 2.0250E-08 tot_iter=     349 conv_iter=     112 cpu clock= 2.46E+00
 tran: time= 3.0000E-08 tot_iter=     513 conv_iter=     163 cpu clock= 2.46E+00
 tran: time= 4.0250E-08 tot_iter=     681 conv_iter=     216 cpu clock= 2.47E+00
 tran: time= 5.0250E-08 tot_iter=     855 conv_iter=     270 cpu clock= 2.47E+00
 tran: time= 6.0250E-08 tot_iter=    1021 conv_iter=     322 cpu clock= 2.48E+00
 tran: time= 7.0250E-08 tot_iter=    1196 conv_iter=     376 cpu clock= 2.48E+00
 tran: time= 8.0250E-08 tot_iter=    1362 conv_iter=     428 cpu clock= 2.49E+00
 tran: time= 9.0250E-08 tot_iter=    1537 conv_iter=     482 cpu clock= 2.49E+00
 tran: time= 1.0000E-07 tot_iter=    1701 conv_iter=     533 cpu clock= 2.50E+00
 sweep: tran tran31   end,  cpu clock=  2.50E+00 peak memory=        36 mb
 parameter: width           =    1.95E-05
 dcop: begin dcop,  cpu clock=  2.51E+00
 dcop: end dcop,  cpu clock=  2.51E+00 peak memory=        36 mb                tot_iter=     224
 output: invdc_chuanxin.mt0
 sweep: tran tran32   begin, stop_t=  1.00E-07 #sweeps=**** cpu clock=  2.52E+00
 tran: time= 1.0168E-08 tot_iter=     176 conv_iter=      56 cpu clock= 2.52E+00
 tran: time= 2.0250E-08 tot_iter=     362 conv_iter=     113 cpu clock= 2.52E+00
 tran: time= 3.0000E-08 tot_iter=     529 conv_iter=     167 cpu clock= 2.53E+00
 tran: time= 4.0250E-08 tot_iter=     730 conv_iter=     230 cpu clock= 2.53E+00
 tran: time= 5.0139E-08 tot_iter=     896 conv_iter=     282 cpu clock= 2.54E+00
 tran: time= 6.0250E-08 tot_iter=    1065 conv_iter=     336 cpu clock= 2.54E+00
 tran: time= 7.0212E-08 tot_iter=    1231 conv_iter=     388 cpu clock= 2.54E+00
 tran: time= 8.0250E-08 tot_iter=    1431 conv_iter=     449 cpu clock= 2.55E+00
 tran: time= 9.0250E-08 tot_iter=    1619 conv_iter=     508 cpu clock= 2.55E+00
 tran: time= 1.0000E-07 tot_iter=    1783 conv_iter=     559 cpu clock= 2.56E+00
 sweep: tran tran32   end,  cpu clock=  2.56E+00 peak memory=        36 mb
 parameter: width           =    2.00E-05
 dcop: begin dcop,  cpu clock=  2.57E+00
 dcop: end dcop,  cpu clock=  2.57E+00 peak memory=        36 mb                tot_iter=     231
 output: invdc_chuanxin.mt0
 sweep: tran tran33   begin, stop_t=  1.00E-07 #sweeps=**** cpu clock=  2.58E+00
 tran: time= 1.0089E-08 tot_iter=     185 conv_iter=      58 cpu clock= 2.58E+00
 tran: time= 2.0087E-08 tot_iter=     369 conv_iter=     115 cpu clock= 2.58E+00
 tran: time= 3.0000E-08 tot_iter=     535 conv_iter=     166 cpu clock= 2.59E+00
 tran: time= 4.0102E-08 tot_iter=     717 conv_iter=     223 cpu clock= 2.59E+00
 tran: time= 5.0250E-08 tot_iter=     895 conv_iter=     279 cpu clock= 2.60E+00
 tran: time= 6.0250E-08 tot_iter=    1060 conv_iter=     331 cpu clock= 2.60E+00
 tran: time= 7.0129E-08 tot_iter=    1224 conv_iter=     383 cpu clock= 2.61E+00
 tran: time= 8.0250E-08 tot_iter=    1391 conv_iter=     436 cpu clock= 2.61E+00
 tran: time= 9.0250E-08 tot_iter=    1563 conv_iter=     490 cpu clock= 2.62E+00
 tran: time= 1.0000E-07 tot_iter=    1729 conv_iter=     542 cpu clock= 2.62E+00
 sweep: tran tran33   end,  cpu clock=  2.62E+00 peak memory=        36 mb
 parameter: width           =    2.05E-05
 dcop: begin dcop,  cpu clock=  2.63E+00
 dcop: end dcop,  cpu clock=  2.63E+00 peak memory=        36 mb                tot_iter=     238
 output: invdc_chuanxin.mt0
 sweep: tran tran34   begin, stop_t=  1.00E-07 #sweeps=**** cpu clock=  2.64E+00
 tran: time= 1.0250E-08 tot_iter=     172 conv_iter=      54 cpu clock= 2.65E+00
 tran: time= 2.0250E-08 tot_iter=     369 conv_iter=     113 cpu clock= 2.65E+00
 tran: time= 3.0000E-08 tot_iter=     535 conv_iter=     165 cpu clock= 2.65E+00
 tran: time= 4.0250E-08 tot_iter=     725 conv_iter=     224 cpu clock= 2.66E+00
 tran: time= 5.0250E-08 tot_iter=     913 conv_iter=     281 cpu clock= 2.66E+00
 tran: time= 6.0169E-08 tot_iter=    1087 conv_iter=     335 cpu clock= 2.66E+00
 tran: time= 7.0250E-08 tot_iter=    1245 conv_iter=     385 cpu clock= 2.67E+00
 tran: time= 8.0250E-08 tot_iter=    1410 conv_iter=     436 cpu clock= 2.67E+00
 tran: time= 9.0250E-08 tot_iter=    1606 conv_iter=     494 cpu clock= 2.68E+00
 tran: time= 1.0000E-07 tot_iter=    1768 conv_iter=     546 cpu clock= 2.68E+00
 sweep: tran tran34   end,  cpu clock=  2.69E+00 peak memory=        36 mb
 parameter: width           =    2.10E-05
 dcop: begin dcop,  cpu clock=  2.69E+00
 dcop: end dcop,  cpu clock=  2.70E+00 peak memory=        36 mb                tot_iter=     245
 output: invdc_chuanxin.mt0
 sweep: tran tran35   begin, stop_t=  1.00E-07 #sweeps=**** cpu clock=  2.70E+00
 tran: time= 1.0117E-08 tot_iter=     177 conv_iter=      56 cpu clock= 2.71E+00
 tran: time= 2.0250E-08 tot_iter=     355 conv_iter=     112 cpu clock= 2.71E+00
 tran: time= 3.0000E-08 tot_iter=     539 conv_iter=     169 cpu clock= 2.72E+00
 tran: time= 4.0250E-08 tot_iter=     750 conv_iter=     233 cpu clock= 2.72E+00
 tran: time= 5.0250E-08 tot_iter=     953 conv_iter=     293 cpu clock= 2.73E+00
 tran: time= 6.0250E-08 tot_iter=    1121 conv_iter=     346 cpu clock= 2.73E+00
 tran: time= 7.0250E-08 tot_iter=    1311 conv_iter=     404 cpu clock= 2.74E+00
 tran: time= 8.0250E-08 tot_iter=    1512 conv_iter=     464 cpu clock= 2.74E+00
 tran: time= 9.0250E-08 tot_iter=    1710 conv_iter=     524 cpu clock= 2.75E+00
 tran: time= 1.0000E-07 tot_iter=    1887 conv_iter=     579 cpu clock= 2.75E+00
 sweep: tran tran35   end,  cpu clock=  2.75E+00 peak memory=        36 mb
 parameter: width           =    2.15E-05
 dcop: begin dcop,  cpu clock=  2.76E+00
 dcop: end dcop,  cpu clock=  2.77E+00 peak memory=        36 mb                tot_iter=     252
 output: invdc_chuanxin.mt0
 sweep: tran tran36   begin, stop_t=  1.00E-07 #sweeps=**** cpu clock=  2.77E+00
 tran: time= 1.0250E-08 tot_iter=     196 conv_iter=      60 cpu clock= 2.78E+00
 tran: time= 2.0250E-08 tot_iter=     361 conv_iter=     113 cpu clock= 2.78E+00
 tran: time= 3.0000E-08 tot_iter=     525 conv_iter=     166 cpu clock= 2.79E+00
 tran: time= 4.0250E-08 tot_iter=     693 conv_iter=     220 cpu clock= 2.79E+00
 tran: time= 5.0250E-08 tot_iter=     861 conv_iter=     272 cpu clock= 2.79E+00
 tran: time= 6.0250E-08 tot_iter=    1047 conv_iter=     331 cpu clock= 2.80E+00
 tran: time= 7.0250E-08 tot_iter=    1213 conv_iter=     384 cpu clock= 2.80E+00
 tran: time= 8.0250E-08 tot_iter=    1377 conv_iter=     438 cpu clock= 2.80E+00
 tran: time= 9.0250E-08 tot_iter=    1541 conv_iter=     491 cpu clock= 2.81E+00
 tran: time= 1.0000E-07 tot_iter=    1709 conv_iter=     544 cpu clock= 2.81E+00
 sweep: tran tran36   end,  cpu clock=  2.81E+00 peak memory=        36 mb
 parameter: width           =    2.20E-05
 dcop: begin dcop,  cpu clock=  2.82E+00
 dcop: end dcop,  cpu clock=  2.83E+00 peak memory=        36 mb                tot_iter=     259
 output: invdc_chuanxin.mt0
 sweep: tran tran37   begin, stop_t=  1.00E-07 #sweeps=**** cpu clock=  2.83E+00
 tran: time= 1.0250E-08 tot_iter=     192 conv_iter=      60 cpu clock= 2.84E+00
 tran: time= 2.0250E-08 tot_iter=     359 conv_iter=     112 cpu clock= 2.84E+00
 tran: time= 3.0000E-08 tot_iter=     526 conv_iter=     163 cpu clock= 2.85E+00
 tran: time= 4.0250E-08 tot_iter=     697 conv_iter=     216 cpu clock= 2.85E+00
 tran: time= 5.0250E-08 tot_iter=     866 conv_iter=     268 cpu clock= 2.85E+00
 tran: time= 6.0250E-08 tot_iter=    1035 conv_iter=     320 cpu clock= 2.86E+00
 tran: time= 7.0250E-08 tot_iter=    1204 conv_iter=     372 cpu clock= 2.86E+00
 tran: time= 8.0250E-08 tot_iter=    1373 conv_iter=     424 cpu clock= 2.87E+00
 tran: time= 9.0250E-08 tot_iter=    1542 conv_iter=     476 cpu clock= 2.87E+00
 tran: time= 1.0000E-07 tot_iter=    1709 conv_iter=     527 cpu clock= 2.88E+00
 sweep: tran tran37   end,  cpu clock=  2.88E+00 peak memory=        36 mb
 parameter: width           =    2.25E-05
 dcop: begin dcop,  cpu clock=  2.89E+00
 dcop: end dcop,  cpu clock=  2.89E+00 peak memory=        36 mb                tot_iter=     266
 output: invdc_chuanxin.mt0
 sweep: tran tran38   begin, stop_t=  1.00E-07 #sweeps=**** cpu clock=  2.90E+00
 tran: time= 1.0250E-08 tot_iter=     199 conv_iter=      60 cpu clock= 2.90E+00
 tran: time= 2.0250E-08 tot_iter=     391 conv_iter=     118 cpu clock= 2.91E+00
 tran: time= 3.0000E-08 tot_iter=     556 conv_iter=     169 cpu clock= 2.91E+00
 tran: time= 4.0250E-08 tot_iter=     725 conv_iter=     222 cpu clock= 2.92E+00
 tran: time= 5.0250E-08 tot_iter=     892 conv_iter=     274 cpu clock= 2.92E+00
 tran: time= 6.0250E-08 tot_iter=    1059 conv_iter=     326 cpu clock= 2.92E+00
 tran: time= 7.0250E-08 tot_iter=    1226 conv_iter=     378 cpu clock= 2.93E+00
 tran: time= 8.0250E-08 tot_iter=    1393 conv_iter=     430 cpu clock= 2.93E+00
 tran: time= 9.0250E-08 tot_iter=    1560 conv_iter=     482 cpu clock= 2.94E+00
 tran: time= 1.0000E-07 tot_iter=    1725 conv_iter=     533 cpu clock= 2.94E+00
 sweep: tran tran38   end,  cpu clock=  2.94E+00 peak memory=        36 mb
 parameter: width           =    2.30E-05
 dcop: begin dcop,  cpu clock=  2.95E+00
 dcop: end dcop,  cpu clock=  2.96E+00 peak memory=        36 mb                tot_iter=     273
 output: invdc_chuanxin.mt0
 sweep: tran tran39   begin, stop_t=  1.00E-07 #sweeps=**** cpu clock=  2.96E+00
 tran: time= 1.0250E-08 tot_iter=     213 conv_iter=      64 cpu clock= 2.97E+00
 tran: time= 2.0250E-08 tot_iter=     380 conv_iter=     116 cpu clock= 2.97E+00
 tran: time= 3.0000E-08 tot_iter=     577 conv_iter=     175 cpu clock= 2.97E+00
 tran: time= 4.0250E-08 tot_iter=     799 conv_iter=     242 cpu clock= 2.98E+00
 tran: time= 5.0250E-08 tot_iter=     987 conv_iter=     300 cpu clock= 2.98E+00
 tran: time= 6.0250E-08 tot_iter=    1187 conv_iter=     360 cpu clock= 2.99E+00
 tran: time= 7.0250E-08 tot_iter=    1380 conv_iter=     419 cpu clock= 2.99E+00
 tran: time= 8.0250E-08 tot_iter=    1580 conv_iter=     479 cpu clock= 3.00E+00
 tran: time= 9.0250E-08 tot_iter=    1775 conv_iter=     538 cpu clock= 3.00E+00
 tran: time= 1.0000E-07 tot_iter=    1973 conv_iter=     597 cpu clock= 3.00E+00
 sweep: tran tran39   end,  cpu clock=  3.01E+00 peak memory=        36 mb
 parameter: width           =    2.35E-05
 dcop: begin dcop,  cpu clock=  3.02E+00
 dcop: end dcop,  cpu clock=  3.02E+00 peak memory=        36 mb                tot_iter=     280
 output: invdc_chuanxin.mt0
 sweep: tran tran40   begin, stop_t=  1.00E-07 #sweeps=**** cpu clock=  3.03E+00
 tran: time= 1.0250E-08 tot_iter=     184 conv_iter=      58 cpu clock= 3.03E+00
 tran: time= 2.0250E-08 tot_iter=     384 conv_iter=     117 cpu clock= 3.03E+00
 tran: time= 3.0000E-08 tot_iter=     566 conv_iter=     172 cpu clock= 3.04E+00
 tran: time= 4.0250E-08 tot_iter=     757 conv_iter=     231 cpu clock= 3.04E+00
 tran: time= 5.0250E-08 tot_iter=     941 conv_iter=     288 cpu clock= 3.04E+00
 tran: time= 6.0250E-08 tot_iter=    1128 conv_iter=     345 cpu clock= 3.05E+00
 tran: time= 7.0250E-08 tot_iter=    1328 conv_iter=     404 cpu clock= 3.05E+00
 tran: time= 8.0149E-08 tot_iter=    1517 conv_iter=     461 cpu clock= 3.06E+00
 tran: time= 9.0250E-08 tot_iter=    1674 conv_iter=     511 cpu clock= 3.06E+00
 tran: time= 1.0000E-07 tot_iter=    1857 conv_iter=     567 cpu clock= 3.06E+00
 sweep: tran tran40   end,  cpu clock=  3.07E+00 peak memory=        36 mb
 parameter: width           =    2.40E-05
 dcop: begin dcop,  cpu clock=  3.08E+00
 dcop: end dcop,  cpu clock=  3.08E+00 peak memory=        36 mb                tot_iter=     287
 output: invdc_chuanxin.mt0
 sweep: tran tran41   begin, stop_t=  1.00E-07 #sweeps=**** cpu clock=  3.09E+00
 tran: time= 1.0250E-08 tot_iter=     190 conv_iter=      58 cpu clock= 3.09E+00
 tran: time= 2.0250E-08 tot_iter=     377 conv_iter=     116 cpu clock= 3.10E+00
 tran: time= 3.0000E-08 tot_iter=     569 conv_iter=     173 cpu clock= 3.10E+00
 tran: time= 4.0250E-08 tot_iter=     760 conv_iter=     232 cpu clock= 3.10E+00
 tran: time= 5.0250E-08 tot_iter=     948 conv_iter=     289 cpu clock= 3.11E+00
 tran: time= 6.0250E-08 tot_iter=    1140 conv_iter=     347 cpu clock= 3.11E+00
 tran: time= 7.0250E-08 tot_iter=    1333 conv_iter=     405 cpu clock= 3.12E+00
 tran: time= 8.0250E-08 tot_iter=    1526 conv_iter=     463 cpu clock= 3.12E+00
 tran: time= 9.0250E-08 tot_iter=    1710 conv_iter=     519 cpu clock= 3.13E+00
 tran: time= 1.0000E-07 tot_iter=    1896 conv_iter=     576 cpu clock= 3.13E+00
 sweep: tran tran41   end,  cpu clock=  3.13E+00 peak memory=        36 mb
 parameter: width           =    2.45E-05
 dcop: begin dcop,  cpu clock=  3.14E+00
 dcop: end dcop,  cpu clock=  3.14E+00 peak memory=        36 mb                tot_iter=     294
 output: invdc_chuanxin.mt0
 sweep: tran tran42   begin, stop_t=  1.00E-07 #sweeps=**** cpu clock=  3.15E+00
 tran: time= 1.0183E-08 tot_iter=     188 conv_iter=      59 cpu clock= 3.15E+00
 tran: time= 2.0203E-08 tot_iter=     385 conv_iter=     119 cpu clock= 3.16E+00
 tran: time= 3.0000E-08 tot_iter=     576 conv_iter=     176 cpu clock= 3.16E+00
 tran: time= 4.0250E-08 tot_iter=     767 conv_iter=     235 cpu clock= 3.17E+00
 tran: time= 5.0250E-08 tot_iter=     956 conv_iter=     293 cpu clock= 3.17E+00
 tran: time= 6.0250E-08 tot_iter=    1146 conv_iter=     351 cpu clock= 3.17E+00
 tran: time= 7.0250E-08 tot_iter=    1327 conv_iter=     407 cpu clock= 3.18E+00
 tran: time= 8.0250E-08 tot_iter=    1509 conv_iter=     463 cpu clock= 3.18E+00
 tran: time= 9.0250E-08 tot_iter=    1699 conv_iter=     521 cpu clock= 3.19E+00
 tran: time= 1.0000E-07 tot_iter=    1886 conv_iter=     578 cpu clock= 3.19E+00
 sweep: tran tran42   end,  cpu clock=  3.20E+00 peak memory=        36 mb
 parameter: width           =    2.50E-05
 dcop: begin dcop,  cpu clock=  3.20E+00
 dcop: end dcop,  cpu clock=  3.21E+00 peak memory=        36 mb                tot_iter=     301
 output: invdc_chuanxin.mt0
 sweep: tran tran43   begin, stop_t=  1.00E-07 #sweeps=**** cpu clock=  3.21E+00
 tran: time= 1.0233E-08 tot_iter=     190 conv_iter=      59 cpu clock= 3.22E+00
 tran: time= 2.0250E-08 tot_iter=     387 conv_iter=     120 cpu clock= 3.22E+00
 tran: time= 3.0000E-08 tot_iter=     582 conv_iter=     178 cpu clock= 3.23E+00
 tran: time= 4.0250E-08 tot_iter=     771 conv_iter=     236 cpu clock= 3.23E+00
 tran: time= 5.0106E-08 tot_iter=     955 conv_iter=     293 cpu clock= 3.23E+00
 tran: time= 6.0116E-08 tot_iter=    1127 conv_iter=     348 cpu clock= 3.24E+00
 tran: time= 7.0250E-08 tot_iter=    1292 conv_iter=     399 cpu clock= 3.24E+00
 tran: time= 8.0107E-08 tot_iter=    1476 conv_iter=     456 cpu clock= 3.25E+00
 tran: time= 9.0235E-08 tot_iter=    1651 conv_iter=     511 cpu clock= 3.25E+00
 tran: time= 1.0000E-07 tot_iter=    1836 conv_iter=     568 cpu clock= 3.26E+00
 sweep: tran tran43   end,  cpu clock=  3.26E+00 peak memory=        36 mb
 parameter: width           =    2.55E-05
 dcop: begin dcop,  cpu clock=  3.27E+00
 dcop: end dcop,  cpu clock=  3.27E+00 peak memory=        36 mb                tot_iter=     308
 output: invdc_chuanxin.mt0
 sweep: tran tran44   begin, stop_t=  1.00E-07 #sweeps=**** cpu clock=  3.28E+00
 tran: time= 1.0154E-08 tot_iter=     194 conv_iter=      61 cpu clock= 3.28E+00
 tran: time= 2.0176E-08 tot_iter=     375 conv_iter=     119 cpu clock= 3.29E+00
 tran: time= 3.0000E-08 tot_iter=     571 conv_iter=     180 cpu clock= 3.29E+00
 tran: time= 4.0250E-08 tot_iter=     758 conv_iter=     239 cpu clock= 3.30E+00
 tran: time= 5.0162E-08 tot_iter=     946 conv_iter=     298 cpu clock= 3.30E+00
 tran: time= 6.0213E-08 tot_iter=    1129 conv_iter=     356 cpu clock= 3.31E+00
 tran: time= 7.0120E-08 tot_iter=    1302 conv_iter=     410 cpu clock= 3.31E+00
 tran: time= 8.0204E-08 tot_iter=    1465 conv_iter=     462 cpu clock= 3.31E+00
 tran: time= 9.0116E-08 tot_iter=    1658 conv_iter=     520 cpu clock= 3.32E+00
 tran: time= 1.0000E-07 tot_iter=    1821 conv_iter=     571 cpu clock= 3.33E+00
 sweep: tran tran44   end,  cpu clock=  3.33E+00 peak memory=        36 mb
 parameter: width           =    2.60E-05
 dcop: begin dcop,  cpu clock=  3.33E+00
 dcop: end dcop,  cpu clock=  3.34E+00 peak memory=        36 mb                tot_iter=     315
 output: invdc_chuanxin.mt0
 sweep: tran tran45   begin, stop_t=  1.00E-07 #sweeps=**** cpu clock=  3.35E+00
 tran: time= 1.0250E-08 tot_iter=     193 conv_iter=      61 cpu clock= 3.35E+00
 tran: time= 2.0227E-08 tot_iter=     380 conv_iter=     120 cpu clock= 3.35E+00
 tran: time= 3.0000E-08 tot_iter=     569 conv_iter=     177 cpu clock= 3.36E+00
 tran: time= 4.0228E-08 tot_iter=     761 conv_iter=     236 cpu clock= 3.36E+00
 tran: time= 5.0184E-08 tot_iter=     953 conv_iter=     294 cpu clock= 3.37E+00
 tran: time= 6.0222E-08 tot_iter=    1148 conv_iter=     356 cpu clock= 3.37E+00
 tran: time= 7.0210E-08 tot_iter=    1347 conv_iter=     418 cpu clock= 3.37E+00
 tran: time= 8.0142E-08 tot_iter=    1520 conv_iter=     472 cpu clock= 3.38E+00
 tran: time= 9.0250E-08 tot_iter=    1702 conv_iter=     530 cpu clock= 3.38E+00
 tran: time= 1.0000E-07 tot_iter=    1891 conv_iter=     588 cpu clock= 3.39E+00
 sweep: tran tran45   end,  cpu clock=  3.39E+00 peak memory=        36 mb
 parameter: width           =    2.65E-05
 dcop: begin dcop,  cpu clock=  3.40E+00
 dcop: end dcop,  cpu clock=  3.40E+00 peak memory=        36 mb                tot_iter=     322
 output: invdc_chuanxin.mt0
 sweep: tran tran46   begin, stop_t=  1.00E-07 #sweeps=**** cpu clock=  3.41E+00
 tran: time= 1.0250E-08 tot_iter=     189 conv_iter=      58 cpu clock= 3.41E+00
 tran: time= 2.0250E-08 tot_iter=     379 conv_iter=     117 cpu clock= 3.42E+00
 tran: time= 3.0000E-08 tot_iter=     551 conv_iter=     170 cpu clock= 3.42E+00
 tran: time= 4.0250E-08 tot_iter=     761 conv_iter=     234 cpu clock= 3.43E+00
 tran: time= 5.0250E-08 tot_iter=     950 conv_iter=     293 cpu clock= 3.43E+00
 tran: time= 6.0250E-08 tot_iter=    1139 conv_iter=     352 cpu clock= 3.44E+00
 tran: time= 7.0250E-08 tot_iter=    1328 conv_iter=     411 cpu clock= 3.44E+00
 tran: time= 8.0250E-08 tot_iter=    1517 conv_iter=     470 cpu clock= 3.44E+00
 tran: time= 9.0250E-08 tot_iter=    1706 conv_iter=     529 cpu clock= 3.45E+00
 tran: time= 1.0000E-07 tot_iter=    1893 conv_iter=     587 cpu clock= 3.45E+00
 sweep: tran tran46   end,  cpu clock=  3.46E+00 peak memory=        36 mb
 parameter: width           =    2.70E-05
 dcop: begin dcop,  cpu clock=  3.46E+00
 dcop: end dcop,  cpu clock=  3.47E+00 peak memory=        36 mb                tot_iter=     329
 output: invdc_chuanxin.mt0
 sweep: tran tran47   begin, stop_t=  1.00E-07 #sweeps=**** cpu clock=  3.47E+00
 tran: time= 1.0235E-08 tot_iter=     184 conv_iter=      57 cpu clock= 3.48E+00
 tran: time= 2.0232E-08 tot_iter=     356 conv_iter=     111 cpu clock= 3.48E+00
 tran: time= 3.0000E-08 tot_iter=     546 conv_iter=     170 cpu clock= 3.49E+00
 tran: time= 4.0250E-08 tot_iter=     747 conv_iter=     230 cpu clock= 3.49E+00
 tran: time= 5.0250E-08 tot_iter=     936 conv_iter=     289 cpu clock= 3.50E+00
 tran: time= 6.0250E-08 tot_iter=    1127 conv_iter=     348 cpu clock= 3.50E+00
 tran: time= 7.0250E-08 tot_iter=    1318 conv_iter=     407 cpu clock= 3.51E+00
 tran: time= 8.0250E-08 tot_iter=    1509 conv_iter=     466 cpu clock= 3.51E+00
 tran: time= 9.0250E-08 tot_iter=    1700 conv_iter=     525 cpu clock= 3.52E+00
 tran: time= 1.0000E-07 tot_iter=    1889 conv_iter=     583 cpu clock= 3.52E+00
 sweep: tran tran47   end,  cpu clock=  3.52E+00 peak memory=        36 mb
 parameter: width           =    2.75E-05
 dcop: begin dcop,  cpu clock=  3.53E+00
 dcop: end dcop,  cpu clock=  3.53E+00 peak memory=        36 mb                tot_iter=     336
 output: invdc_chuanxin.mt0
 sweep: tran tran48   begin, stop_t=  1.00E-07 #sweeps=**** cpu clock=  3.54E+00
 tran: time= 1.0223E-08 tot_iter=     208 conv_iter=      63 cpu clock= 3.54E+00
 tran: time= 2.0135E-08 tot_iter=     413 conv_iter=     126 cpu clock= 3.55E+00
 tran: time= 3.0000E-08 tot_iter=     601 conv_iter=     187 cpu clock= 3.55E+00
 tran: time= 4.0250E-08 tot_iter=     780 conv_iter=     242 cpu clock= 3.56E+00
 tran: time= 5.0250E-08 tot_iter=     951 conv_iter=     295 cpu clock= 3.56E+00
 tran: time= 6.0250E-08 tot_iter=    1150 conv_iter=     354 cpu clock= 3.57E+00
 tran: time= 7.0250E-08 tot_iter=    1324 conv_iter=     408 cpu clock= 3.57E+00
 tran: time= 8.0250E-08 tot_iter=    1506 conv_iter=     464 cpu clock= 3.58E+00
 tran: time= 9.0250E-08 tot_iter=    1686 conv_iter=     520 cpu clock= 3.58E+00
 tran: time= 1.0000E-07 tot_iter=    1852 conv_iter=     571 cpu clock= 3.58E+00
 sweep: tran tran48   end,  cpu clock=  3.59E+00 peak memory=        36 mb
 parameter: width           =    2.80E-05
 dcop: begin dcop,  cpu clock=  3.59E+00
 dcop: end dcop,  cpu clock=  3.60E+00 peak memory=        36 mb                tot_iter=     343
 output: invdc_chuanxin.mt0
 sweep: tran tran49   begin, stop_t=  1.00E-07 #sweeps=**** cpu clock=  3.60E+00
 tran: time= 1.0250E-08 tot_iter=     179 conv_iter=      56 cpu clock= 3.61E+00
 tran: time= 2.0250E-08 tot_iter=     391 conv_iter=     120 cpu clock= 3.61E+00
 tran: time= 3.0000E-08 tot_iter=     570 conv_iter=     175 cpu clock= 3.61E+00
 tran: time= 4.0250E-08 tot_iter=     796 conv_iter=     241 cpu clock= 3.62E+00
 tran: time= 5.0250E-08 tot_iter=     974 conv_iter=     295 cpu clock= 3.62E+00
 tran: time= 6.0250E-08 tot_iter=    1198 conv_iter=     360 cpu clock= 3.63E+00
 tran: time= 7.0250E-08 tot_iter=    1376 conv_iter=     414 cpu clock= 3.63E+00
 tran: time= 8.0250E-08 tot_iter=    1596 conv_iter=     480 cpu clock= 3.64E+00
 tran: time= 9.0250E-08 tot_iter=    1772 conv_iter=     534 cpu clock= 3.64E+00
 tran: time= 1.0000E-07 tot_iter=    1937 conv_iter=     587 cpu clock= 3.65E+00
 sweep: tran tran49   end,  cpu clock=  3.65E+00 peak memory=        36 mb
 parameter: width           =    2.85E-05
 dcop: begin dcop,  cpu clock=  3.66E+00
 dcop: end dcop,  cpu clock=  3.66E+00 peak memory=        36 mb                tot_iter=     350
 output: invdc_chuanxin.mt0
 sweep: tran tran50   begin, stop_t=  1.00E-07 #sweeps=**** cpu clock=  3.67E+00
 tran: time= 1.0250E-08 tot_iter=     180 conv_iter=      55 cpu clock= 3.67E+00
 tran: time= 2.0250E-08 tot_iter=     345 conv_iter=     109 cpu clock= 3.68E+00
 tran: time= 3.0000E-08 tot_iter=     508 conv_iter=     162 cpu clock= 3.68E+00
 tran: time= 4.0250E-08 tot_iter=     675 conv_iter=     217 cpu clock= 3.68E+00
 tran: time= 5.0250E-08 tot_iter=     840 conv_iter=     271 cpu clock= 3.69E+00
 tran: time= 6.0250E-08 tot_iter=    1005 conv_iter=     325 cpu clock= 3.69E+00
 tran: time= 7.0250E-08 tot_iter=    1170 conv_iter=     379 cpu clock= 3.69E+00
 tran: time= 8.0250E-08 tot_iter=    1335 conv_iter=     433 cpu clock= 3.70E+00
 tran: time= 9.0250E-08 tot_iter=    1502 conv_iter=     487 cpu clock= 3.70E+00
 tran: time= 1.0000E-07 tot_iter=    1665 conv_iter=     540 cpu clock= 3.71E+00
 sweep: tran tran50   end,  cpu clock=  3.71E+00 peak memory=        36 mb
 parameter: width           =    2.90E-05
 dcop: begin dcop,  cpu clock=  3.72E+00
 dcop: end dcop,  cpu clock=  3.72E+00 peak memory=        36 mb                tot_iter=     357
 output: invdc_chuanxin.mt0
 sweep: tran tran51   begin, stop_t=  1.00E-07 #sweeps=**** cpu clock=  3.73E+00
 tran: time= 1.0250E-08 tot_iter=     189 conv_iter=      60 cpu clock= 3.73E+00
 tran: time= 2.0250E-08 tot_iter=     359 conv_iter=     113 cpu clock= 3.74E+00
 tran: time= 3.0000E-08 tot_iter=     525 conv_iter=     166 cpu clock= 3.74E+00
 tran: time= 4.0250E-08 tot_iter=     694 conv_iter=     221 cpu clock= 3.74E+00
 tran: time= 5.0250E-08 tot_iter=     861 conv_iter=     275 cpu clock= 3.75E+00
 tran: time= 6.0250E-08 tot_iter=    1028 conv_iter=     329 cpu clock= 3.75E+00
 tran: time= 7.0250E-08 tot_iter=    1195 conv_iter=     383 cpu clock= 3.76E+00
 tran: time= 8.0250E-08 tot_iter=    1362 conv_iter=     437 cpu clock= 3.76E+00
 tran: time= 9.0250E-08 tot_iter=    1529 conv_iter=     491 cpu clock= 3.76E+00
 tran: time= 1.0000E-07 tot_iter=    1694 conv_iter=     544 cpu clock= 3.77E+00
 sweep: tran tran51   end,  cpu clock=  3.77E+00 peak memory=        36 mb
 parameter: width           =    2.95E-05
 dcop: begin dcop,  cpu clock=  3.78E+00
 dcop: end dcop,  cpu clock=  3.78E+00 peak memory=        36 mb                tot_iter=     364
 output: invdc_chuanxin.mt0
 sweep: tran tran52   begin, stop_t=  1.00E-07 #sweeps=**** cpu clock=  3.79E+00
 tran: time= 1.0250E-08 tot_iter=     189 conv_iter=      60 cpu clock= 3.79E+00
 tran: time= 2.0250E-08 tot_iter=     369 conv_iter=     117 cpu clock= 3.80E+00
 tran: time= 3.0000E-08 tot_iter=     553 conv_iter=     174 cpu clock= 3.80E+00
 tran: time= 4.0250E-08 tot_iter=     723 conv_iter=     227 cpu clock= 3.80E+00
 tran: time= 5.0250E-08 tot_iter=     922 conv_iter=     286 cpu clock= 3.81E+00
 tran: time= 6.0250E-08 tot_iter=    1096 conv_iter=     340 cpu clock= 3.81E+00
 tran: time= 7.0250E-08 tot_iter=    1277 conv_iter=     398 cpu clock= 3.82E+00
 tran: time= 8.0250E-08 tot_iter=    1444 conv_iter=     452 cpu clock= 3.82E+00
 tran: time= 9.0250E-08 tot_iter=    1620 conv_iter=     509 cpu clock= 3.83E+00
 tran: time= 1.0000E-07 tot_iter=    1783 conv_iter=     560 cpu clock= 3.83E+00
 sweep: tran tran52   end,  cpu clock=  3.83E+00 peak memory=        36 mb
 parameter: width           =    3.00E-05
 dcop: begin dcop,  cpu clock=  3.84E+00
 dcop: end dcop,  cpu clock=  3.84E+00 peak memory=        36 mb                tot_iter=     371
 output: invdc_chuanxin.mt0
 sweep: tran tran53   begin, stop_t=  1.00E-07 #sweeps=**** cpu clock=  3.85E+00
 tran: time= 1.0250E-08 tot_iter=     186 conv_iter=      61 cpu clock= 3.86E+00
 tran: time= 2.0250E-08 tot_iter=     387 conv_iter=     123 cpu clock= 3.86E+00
 tran: time= 3.0000E-08 tot_iter=     578 conv_iter=     182 cpu clock= 3.87E+00
 tran: time= 4.0250E-08 tot_iter=     747 conv_iter=     235 cpu clock= 3.87E+00
 tran: time= 5.0250E-08 tot_iter=     919 conv_iter=     289 cpu clock= 3.88E+00
 tran: time= 6.0250E-08 tot_iter=    1106 conv_iter=     347 cpu clock= 3.88E+00
 tran: time= 7.0250E-08 tot_iter=    1319 conv_iter=     411 cpu clock= 3.88E+00
 tran: time= 8.0250E-08 tot_iter=    1521 conv_iter=     473 cpu clock= 3.89E+00
 tran: time= 9.0250E-08 tot_iter=    1687 conv_iter=     525 cpu clock= 3.89E+00
 tran: time= 1.0000E-07 tot_iter=    1858 conv_iter=     580 cpu clock= 3.90E+00
 sweep: tran tran53   end,  cpu clock=  3.90E+00 peak memory=        36 mb
 parameter: width           =    3.05E-05
 dcop: begin dcop,  cpu clock=  3.91E+00
 dcop: end dcop,  cpu clock=  3.91E+00 peak memory=        36 mb                tot_iter=     378
 output: invdc_chuanxin.mt0
 sweep: tran tran54   begin, stop_t=  1.00E-07 #sweeps=**** cpu clock=  3.92E+00
 tran: time= 1.0250E-08 tot_iter=     179 conv_iter=      56 cpu clock= 3.92E+00
 tran: time= 2.0250E-08 tot_iter=     373 conv_iter=     116 cpu clock= 3.93E+00
 tran: time= 3.0000E-08 tot_iter=     584 conv_iter=     179 cpu clock= 3.93E+00
 tran: time= 4.0250E-08 tot_iter=     780 conv_iter=     240 cpu clock= 3.94E+00
 tran: time= 5.0250E-08 tot_iter=     994 conv_iter=     303 cpu clock= 3.94E+00
 tran: time= 6.0250E-08 tot_iter=    1184 conv_iter=     361 cpu clock= 3.95E+00
 tran: time= 7.0250E-08 tot_iter=    1401 conv_iter=     425 cpu clock= 3.95E+00
 tran: time= 8.0250E-08 tot_iter=    1584 conv_iter=     481 cpu clock= 3.96E+00
 tran: time= 9.0250E-08 tot_iter=    1769 conv_iter=     537 cpu clock= 3.96E+00
 tran: time= 1.0000E-07 tot_iter=    1962 conv_iter=     596 cpu clock= 3.96E+00
 sweep: tran tran54   end,  cpu clock=  3.97E+00 peak memory=        36 mb
 parameter: width           =    3.10E-05
 dcop: begin dcop,  cpu clock=  3.98E+00
 dcop: end dcop,  cpu clock=  3.98E+00 peak memory=        36 mb                tot_iter=     385
 output: invdc_chuanxin.mt0
 sweep: tran tran55   begin, stop_t=  1.00E-07 #sweeps=**** cpu clock=  3.99E+00
 tran: time= 1.0250E-08 tot_iter=     181 conv_iter=      56 cpu clock= 3.99E+00
 tran: time= 2.0250E-08 tot_iter=     362 conv_iter=     110 cpu clock= 3.99E+00
 tran: time= 3.0000E-08 tot_iter=     541 conv_iter=     163 cpu clock= 4.00E+00
 tran: time= 4.0250E-08 tot_iter=     724 conv_iter=     218 cpu clock= 4.00E+00
 tran: time= 5.0250E-08 tot_iter=     905 conv_iter=     272 cpu clock= 4.01E+00
 tran: time= 6.0250E-08 tot_iter=    1086 conv_iter=     326 cpu clock= 4.01E+00
 tran: time= 7.0250E-08 tot_iter=    1267 conv_iter=     380 cpu clock= 4.02E+00
 tran: time= 8.0250E-08 tot_iter=    1448 conv_iter=     434 cpu clock= 4.02E+00
 tran: time= 9.0250E-08 tot_iter=    1629 conv_iter=     488 cpu clock= 4.05E+00
 tran: time= 1.0000E-07 tot_iter=    1808 conv_iter=     541 cpu clock= 4.06E+00
 sweep: tran tran55   end,  cpu clock=  4.07E+00 peak memory=        36 mb
 parameter: width           =    3.15E-05
 dcop: begin dcop,  cpu clock=  4.07E+00
 dcop: end dcop,  cpu clock=  4.08E+00 peak memory=        36 mb                tot_iter=     392
 output: invdc_chuanxin.mt0
 sweep: tran tran56   begin, stop_t=  1.00E-07 #sweeps=**** cpu clock=  4.09E+00
 tran: time= 1.0250E-08 tot_iter=     184 conv_iter=      59 cpu clock= 4.09E+00
 tran: time= 2.0250E-08 tot_iter=     389 conv_iter=     119 cpu clock= 4.09E+00
 tran: time= 3.0000E-08 tot_iter=     579 conv_iter=     175 cpu clock= 4.10E+00
 tran: time= 4.0250E-08 tot_iter=     776 conv_iter=     238 cpu clock= 4.10E+00
 tran: time= 5.0250E-08 tot_iter=     962 conv_iter=     296 cpu clock= 4.11E+00
 tran: time= 6.0250E-08 tot_iter=    1167 conv_iter=     356 cpu clock= 4.11E+00
 tran: time= 7.0128E-08 tot_iter=    1341 conv_iter=     411 cpu clock= 4.12E+00
 tran: time= 8.0250E-08 tot_iter=    1540 conv_iter=     471 cpu clock= 4.12E+00
 tran: time= 9.0250E-08 tot_iter=    1740 conv_iter=     531 cpu clock= 4.12E+00
 tran: time= 1.0000E-07 tot_iter=    1943 conv_iter=     592 cpu clock= 4.13E+00
 sweep: tran tran56   end,  cpu clock=  4.13E+00 peak memory=        36 mb
 parameter: width           =    3.20E-05
 dcop: begin dcop,  cpu clock=  4.14E+00
 dcop: end dcop,  cpu clock=  4.14E+00 peak memory=        36 mb                tot_iter=     399
 output: invdc_chuanxin.mt0
 sweep: tran tran57   begin, stop_t=  1.00E-07 #sweeps=**** cpu clock=  4.15E+00
 tran: time= 1.0250E-08 tot_iter=     199 conv_iter=      62 cpu clock= 4.15E+00
 tran: time= 2.0250E-08 tot_iter=     380 conv_iter=     116 cpu clock= 4.16E+00
 tran: time= 3.0000E-08 tot_iter=     555 conv_iter=     169 cpu clock= 4.16E+00
 tran: time= 4.0250E-08 tot_iter=     743 conv_iter=     229 cpu clock= 4.17E+00
 tran: time= 5.0250E-08 tot_iter=     925 conv_iter=     287 cpu clock= 4.17E+00
 tran: time= 6.0250E-08 tot_iter=    1116 conv_iter=     344 cpu clock= 4.18E+00
 tran: time= 7.0250E-08 tot_iter=    1302 conv_iter=     401 cpu clock= 4.18E+00
 tran: time= 8.0250E-08 tot_iter=    1486 conv_iter=     455 cpu clock= 4.19E+00
 tran: time= 9.0250E-08 tot_iter=    1677 conv_iter=     512 cpu clock= 4.19E+00
 tran: time= 1.0000E-07 tot_iter=    1855 conv_iter=     565 cpu clock= 4.20E+00
 sweep: tran tran57   end,  cpu clock=  4.20E+00 peak memory=        36 mb
 parameter: width           =    3.25E-05
 dcop: begin dcop,  cpu clock=  4.21E+00
 dcop: end dcop,  cpu clock=  4.21E+00 peak memory=        36 mb                tot_iter=     406
 output: invdc_chuanxin.mt0
 sweep: tran tran58   begin, stop_t=  1.00E-07 #sweeps=**** cpu clock=  4.22E+00
 tran: time= 1.0250E-08 tot_iter=     191 conv_iter=      60 cpu clock= 4.22E+00
 tran: time= 2.0250E-08 tot_iter=     394 conv_iter=     122 cpu clock= 4.23E+00
 tran: time= 3.0000E-08 tot_iter=     582 conv_iter=     178 cpu clock= 4.23E+00
 tran: time= 4.0250E-08 tot_iter=     783 conv_iter=     239 cpu clock= 4.24E+00
 tran: time= 5.0250E-08 tot_iter=     959 conv_iter=     293 cpu clock= 4.24E+00
 tran: time= 6.0250E-08 tot_iter=    1135 conv_iter=     348 cpu clock= 4.25E+00
 tran: time= 7.0250E-08 tot_iter=    1337 conv_iter=     408 cpu clock= 4.25E+00
 tran: time= 8.0250E-08 tot_iter=    1521 conv_iter=     464 cpu clock= 4.26E+00
 tran: time= 9.0250E-08 tot_iter=    1716 conv_iter=     521 cpu clock= 4.26E+00
 tran: time= 1.0000E-07 tot_iter=    1904 conv_iter=     577 cpu clock= 4.27E+00
 sweep: tran tran58   end,  cpu clock=  4.27E+00 peak memory=        36 mb
 parameter: width           =    3.30E-05
 dcop: begin dcop,  cpu clock=  4.28E+00
 dcop: end dcop,  cpu clock=  4.28E+00 peak memory=        36 mb                tot_iter=     413
 output: invdc_chuanxin.mt0
 sweep: tran tran59   begin, stop_t=  1.00E-07 #sweeps=**** cpu clock=  4.29E+00
 tran: time= 1.0250E-08 tot_iter=     187 conv_iter=      60 cpu clock= 4.29E+00
 tran: time= 2.0250E-08 tot_iter=     369 conv_iter=     116 cpu clock= 4.30E+00
 tran: time= 3.0000E-08 tot_iter=     563 conv_iter=     175 cpu clock= 4.30E+00
 tran: time= 4.0250E-08 tot_iter=     764 conv_iter=     237 cpu clock= 4.31E+00
 tran: time= 5.0250E-08 tot_iter=     946 conv_iter=     293 cpu clock= 4.31E+00
 tran: time= 6.0250E-08 tot_iter=    1151 conv_iter=     354 cpu clock= 4.32E+00
 tran: time= 7.0250E-08 tot_iter=    1365 conv_iter=     418 cpu clock= 4.32E+00
 tran: time= 8.0250E-08 tot_iter=    1548 conv_iter=     474 cpu clock= 4.33E+00
 tran: time= 9.0250E-08 tot_iter=    1766 conv_iter=     538 cpu clock= 4.33E+00
 tran: time= 1.0000E-07 tot_iter=    1946 conv_iter=     593 cpu clock= 4.34E+00
 sweep: tran tran59   end,  cpu clock=  4.34E+00 peak memory=        36 mb
 parameter: width           =    3.35E-05
 dcop: begin dcop,  cpu clock=  4.35E+00
 dcop: end dcop,  cpu clock=  4.35E+00 peak memory=        36 mb                tot_iter=     420
 output: invdc_chuanxin.mt0
 sweep: tran tran60   begin, stop_t=  1.00E-07 #sweeps=**** cpu clock=  4.36E+00
 tran: time= 1.0250E-08 tot_iter=     185 conv_iter=      60 cpu clock= 4.37E+00
 tran: time= 2.0250E-08 tot_iter=     370 conv_iter=     116 cpu clock= 4.37E+00
 tran: time= 3.0000E-08 tot_iter=     560 conv_iter=     172 cpu clock= 4.38E+00
 tran: time= 4.0250E-08 tot_iter=     762 conv_iter=     233 cpu clock= 4.38E+00
 tran: time= 5.0250E-08 tot_iter=     947 conv_iter=     287 cpu clock= 4.39E+00
 tran: time= 6.0250E-08 tot_iter=    1137 conv_iter=     346 cpu clock= 4.40E+00
 tran: time= 7.0250E-08 tot_iter=    1329 conv_iter=     404 cpu clock= 4.41E+00
 tran: time= 8.0250E-08 tot_iter=    1552 conv_iter=     469 cpu clock= 4.41E+00
 tran: time= 9.0250E-08 tot_iter=    1733 conv_iter=     523 cpu clock= 4.42E+00
 tran: time= 1.0000E-07 tot_iter=    1901 conv_iter=     576 cpu clock= 4.43E+00
 sweep: tran tran60   end,  cpu clock=  4.44E+00 peak memory=        36 mb
 parameter: width           =    3.40E-05
 dcop: begin dcop,  cpu clock=  4.45E+00
 dcop: end dcop,  cpu clock=  4.45E+00 peak memory=        36 mb                tot_iter=     427
 output: invdc_chuanxin.mt0
 sweep: tran tran61   begin, stop_t=  1.00E-07 #sweeps=**** cpu clock=  4.46E+00
 tran: time= 1.0250E-08 tot_iter=     170 conv_iter=      56 cpu clock= 4.47E+00
 tran: time= 2.0250E-08 tot_iter=     393 conv_iter=     122 cpu clock= 4.48E+00
 tran: time= 3.0000E-08 tot_iter=     594 conv_iter=     182 cpu clock= 4.49E+00
 tran: time= 4.0250E-08 tot_iter=     779 conv_iter=     238 cpu clock= 4.49E+00
 tran: time= 5.0250E-08 tot_iter=    1001 conv_iter=     304 cpu clock= 4.50E+00
 tran: time= 6.0250E-08 tot_iter=    1207 conv_iter=     366 cpu clock= 4.51E+00
 tran: time= 7.0250E-08 tot_iter=    1395 conv_iter=     424 cpu clock= 4.51E+00
 tran: time= 8.0250E-08 tot_iter=    1596 conv_iter=     486 cpu clock= 4.52E+00
 tran: time= 9.0250E-08 tot_iter=    1789 conv_iter=     545 cpu clock= 4.53E+00
 tran: time= 1.0000E-07 tot_iter=    1973 conv_iter=     600 cpu clock= 4.53E+00
 sweep: tran tran61   end,  cpu clock=  4.54E+00 peak memory=        36 mb
 parameter: width           =    3.45E-05
 dcop: begin dcop,  cpu clock=  4.55E+00
 dcop: end dcop,  cpu clock=  4.56E+00 peak memory=        36 mb                tot_iter=     434
 output: invdc_chuanxin.mt0
 sweep: tran tran62   begin, stop_t=  1.00E-07 #sweeps=**** cpu clock=  4.57E+00
 tran: time= 1.0250E-08 tot_iter=     198 conv_iter=      63 cpu clock= 4.58E+00
 tran: time= 2.0250E-08 tot_iter=     373 conv_iter=     117 cpu clock= 4.59E+00
 tran: time= 3.0000E-08 tot_iter=     564 conv_iter=     175 cpu clock= 4.59E+00
 tran: time= 4.0250E-08 tot_iter=     762 conv_iter=     235 cpu clock= 4.60E+00
 tran: time= 5.0250E-08 tot_iter=     977 conv_iter=     299 cpu clock= 4.61E+00
 tran: time= 6.0250E-08 tot_iter=    1199 conv_iter=     365 cpu clock= 4.61E+00
 tran: time= 7.0250E-08 tot_iter=    1374 conv_iter=     419 cpu clock= 4.62E+00
 tran: time= 8.0250E-08 tot_iter=    1567 conv_iter=     478 cpu clock= 4.63E+00
 tran: time= 9.0250E-08 tot_iter=    1762 conv_iter=     537 cpu clock= 4.64E+00
 tran: time= 1.0000E-07 tot_iter=    1962 conv_iter=     597 cpu clock= 4.64E+00
 sweep: tran tran62   end,  cpu clock=  4.65E+00 peak memory=        36 mb
 parameter: width           =    3.50E-05
 dcop: begin dcop,  cpu clock=  4.66E+00
 dcop: end dcop,  cpu clock=  4.67E+00 peak memory=        36 mb                tot_iter=     441
 output: invdc_chuanxin.mt0
 sweep: tran tran63   begin, stop_t=  1.00E-07 #sweeps=**** cpu clock=  4.68E+00
 tran: time= 1.0250E-08 tot_iter=     199 conv_iter=      62 cpu clock= 4.68E+00
 tran: time= 2.0250E-08 tot_iter=     398 conv_iter=     123 cpu clock= 4.69E+00
 tran: time= 3.0000E-08 tot_iter=     598 conv_iter=     183 cpu clock= 4.70E+00
 tran: time= 4.0250E-08 tot_iter=     797 conv_iter=     243 cpu clock= 4.71E+00
 tran: time= 5.0250E-08 tot_iter=     976 conv_iter=     297 cpu clock= 4.71E+00
 tran: time= 6.0250E-08 tot_iter=    1193 conv_iter=     361 cpu clock= 4.72E+00
 tran: time= 7.0250E-08 tot_iter=    1396 conv_iter=     421 cpu clock= 4.73E+00
 tran: time= 8.0250E-08 tot_iter=    1604 conv_iter=     482 cpu clock= 4.73E+00
 tran: time= 9.0250E-08 tot_iter=    1803 conv_iter=     543 cpu clock= 4.74E+00
 tran: time= 1.0000E-07 tot_iter=    2003 conv_iter=     603 cpu clock= 4.75E+00
 sweep: tran tran63   end,  cpu clock=  4.75E+00 peak memory=        36 mb
 parameter: width           =    3.55E-05
 dcop: begin dcop,  cpu clock=  4.77E+00
 dcop: end dcop,  cpu clock=  4.77E+00 peak memory=        36 mb                tot_iter=     448
 output: invdc_chuanxin.mt0
 sweep: tran tran64   begin, stop_t=  1.00E-07 #sweeps=**** cpu clock=  4.78E+00
 tran: time= 1.0250E-08 tot_iter=     210 conv_iter=      63 cpu clock= 4.79E+00
 tran: time= 2.0250E-08 tot_iter=     399 conv_iter=     120 cpu clock= 4.79E+00
 tran: time= 3.0000E-08 tot_iter=     604 conv_iter=     180 cpu clock= 4.80E+00
 tran: time= 4.0250E-08 tot_iter=     808 conv_iter=     242 cpu clock= 4.81E+00
 tran: time= 5.0250E-08 tot_iter=    1006 conv_iter=     301 cpu clock= 4.82E+00
 tran: time= 6.0152E-08 tot_iter=    1212 conv_iter=     362 cpu clock= 4.82E+00
 tran: time= 7.0250E-08 tot_iter=    1404 conv_iter=     422 cpu clock= 4.83E+00
 tran: time= 8.0250E-08 tot_iter=    1599 conv_iter=     481 cpu clock= 4.84E+00
 tran: time= 9.0250E-08 tot_iter=    1794 conv_iter=     540 cpu clock= 4.85E+00
 tran: time= 1.0000E-07 tot_iter=    1987 conv_iter=     598 cpu clock= 4.85E+00
 sweep: tran tran64   end,  cpu clock=  4.86E+00 peak memory=        36 mb
 parameter: width           =    3.60E-05
 dcop: begin dcop,  cpu clock=  4.87E+00
 dcop: end dcop,  cpu clock=  4.88E+00 peak memory=        36 mb                tot_iter=     455
 output: invdc_chuanxin.mt0
 sweep: tran tran65   begin, stop_t=  1.00E-07 #sweeps=**** cpu clock=  4.89E+00
 tran: time= 1.0250E-08 tot_iter=     202 conv_iter=      63 cpu clock= 4.90E+00
 tran: time= 2.0250E-08 tot_iter=     408 conv_iter=     125 cpu clock= 4.91E+00
 tran: time= 3.0000E-08 tot_iter=     607 conv_iter=     185 cpu clock= 4.92E+00
 tran: time= 4.0250E-08 tot_iter=     796 conv_iter=     243 cpu clock= 4.93E+00
 tran: time= 5.0250E-08 tot_iter=     991 conv_iter=     302 cpu clock= 4.93E+00
 tran: time= 6.0250E-08 tot_iter=    1193 conv_iter=     363 cpu clock= 4.94E+00
 tran: time= 7.0250E-08 tot_iter=    1398 conv_iter=     423 cpu clock= 4.95E+00
 tran: time= 8.0250E-08 tot_iter=    1586 conv_iter=     480 cpu clock= 4.95E+00
 tran: time= 9.0250E-08 tot_iter=    1788 conv_iter=     541 cpu clock= 4.96E+00
 tran: time= 1.0000E-07 tot_iter=    1982 conv_iter=     599 cpu clock= 4.97E+00
 sweep: tran tran65   end,  cpu clock=  4.97E+00 peak memory=        36 mb
 parameter: width           =    3.65E-05
 dcop: begin dcop,  cpu clock=  4.99E+00
 dcop: end dcop,  cpu clock=  5.00E+00 peak memory=        36 mb                tot_iter=     462
 output: invdc_chuanxin.mt0
 sweep: tran tran66   begin, stop_t=  1.00E-07 #sweeps=**** cpu clock=  5.01E+00
 tran: time= 1.0250E-08 tot_iter=     177 conv_iter=      57 cpu clock= 5.02E+00
 tran: time= 2.0250E-08 tot_iter=     366 conv_iter=     115 cpu clock= 5.02E+00
 tran: time= 3.0000E-08 tot_iter=     569 conv_iter=     175 cpu clock= 5.03E+00
 tran: time= 4.0250E-08 tot_iter=     774 conv_iter=     237 cpu clock= 5.04E+00
 tran: time= 5.0250E-08 tot_iter=     951 conv_iter=     291 cpu clock= 5.04E+00
 tran: time= 6.0250E-08 tot_iter=    1139 conv_iter=     349 cpu clock= 5.05E+00
 tran: time= 7.0250E-08 tot_iter=    1325 conv_iter=     408 cpu clock= 5.06E+00
 tran: time= 8.0250E-08 tot_iter=    1504 conv_iter=     463 cpu clock= 5.07E+00
 tran: time= 9.0250E-08 tot_iter=    1708 conv_iter=     523 cpu clock= 5.07E+00
 tran: time= 1.0000E-07 tot_iter=    1884 conv_iter=     578 cpu clock= 5.08E+00
[...]
 output: invdc_chuanxin.mt0
 sweep: tran tran177  begin, stop_t=  1.00E-07 #sweeps=**** cpu clock=  1.71E+01
 tran: time= 1.0250E-08 tot_iter=     203 conv_iter=      63 cpu clock= 1.71E+01
 tran: time= 2.0250E-08 tot_iter=     443 conv_iter=     131 cpu clock= 1.71E+01
 tran: time= 3.0000E-08 tot_iter=     647 conv_iter=     192 cpu clock= 1.71E+01
 tran: time= 4.0250E-08 tot_iter=     830 conv_iter=     248 cpu clock= 1.71E+01
 tran: time= 5.0250E-08 tot_iter=    1046 conv_iter=     312 cpu clock= 1.71E+01
 tran: time= 6.0250E-08 tot_iter=    1267 conv_iter=     376 cpu clock= 1.71E+01
 tran: time= 7.0250E-08 tot_iter=    1448 conv_iter=     431 cpu clock= 1.71E+01
 tran: time= 8.0250E-08 tot_iter=    1666 conv_iter=     494 cpu clock= 1.71E+01
 tran: time= 9.0250E-08 tot_iter=    1884 conv_iter=     558 cpu clock= 1.71E+01
 tran: time= 1.0000E-07 tot_iter=    2077 conv_iter=     616 cpu clock= 1.71E+01
 sweep: tran tran177  end,  cpu clock=  1.71E+01 peak memory=        36 mb
 parameter: width           =    9.25E-05
 dcop: begin dcop,  cpu clock=  1.72E+01
 dcop: end dcop,  cpu clock=  1.72E+01 peak memory=        36 mb                tot_iter=    1246
 output: invdc_chuanxin.mt0
 sweep: tran tran178  begin, stop_t=  1.00E-07 #sweeps=**** cpu clock=  1.72E+01
 tran: time= 1.0250E-08 tot_iter=     207 conv_iter=      62 cpu clock= 1.72E+01
 tran: time= 2.0250E-08 tot_iter=     432 conv_iter=     128 cpu clock= 1.72E+01
 tran: time= 3.0000E-08 tot_iter=     613 conv_iter=     182 cpu clock= 1.72E+01
 tran: time= 4.0250E-08 tot_iter=     798 conv_iter=     238 cpu clock= 1.72E+01
 tran: time= 5.0250E-08 tot_iter=     981 conv_iter=     293 cpu clock= 1.72E+01
 tran: time= 6.0250E-08 tot_iter=    1164 conv_iter=     348 cpu clock= 1.72E+01
 tran: time= 7.0250E-08 tot_iter=    1347 conv_iter=     403 cpu clock= 1.72E+01
 tran: time= 8.0250E-08 tot_iter=    1530 conv_iter=     458 cpu clock= 1.72E+01
 tran: time= 9.0250E-08 tot_iter=    1713 conv_iter=     513 cpu clock= 1.72E+01
 tran: time= 1.0000E-07 tot_iter=    1894 conv_iter=     567 cpu clock= 1.72E+01
 sweep: tran tran178  end,  cpu clock=  1.72E+01 peak memory=        36 mb
 parameter: width           =    9.30E-05
 dcop: begin dcop,  cpu clock=  1.72E+01
 dcop: end dcop,  cpu clock=  1.73E+01 peak memory=        36 mb                tot_iter=    1253
 output: invdc_chuanxin.mt0
 sweep: tran tran179  begin, stop_t=  1.00E-07 #sweeps=**** cpu clock=  1.73E+01
 tran: time= 1.0250E-08 tot_iter=     199 conv_iter=      61 cpu clock= 1.73E+01
 tran: time= 2.0250E-08 tot_iter=     383 conv_iter=     116 cpu clock= 1.73E+01
 tran: time= 3.0000E-08 tot_iter=     570 conv_iter=     172 cpu clock= 1.73E+01
 tran: time= 4.0250E-08 tot_iter=     772 conv_iter=     232 cpu clock= 1.73E+01
 tran: time= 5.0250E-08 tot_iter=     988 conv_iter=     296 cpu clock= 1.73E+01
 tran: time= 6.0250E-08 tot_iter=    1183 conv_iter=     355 cpu clock= 1.73E+01
 tran: time= 7.0250E-08 tot_iter=    1405 conv_iter=     417 cpu clock= 1.73E+01
 tran: time= 8.0250E-08 tot_iter=    1594 conv_iter=     474 cpu clock= 1.73E+01
 tran: time= 9.0250E-08 tot_iter=    1778 conv_iter=     529 cpu clock= 1.73E+01
 tran: time= 1.0000E-07 tot_iter=    1965 conv_iter=     585 cpu clock= 1.73E+01
 sweep: tran tran179  end,  cpu clock=  1.73E+01 peak memory=        36 mb
 parameter: width           =    9.35E-05
 dcop: begin dcop,  cpu clock=  1.74E+01
 dcop: end dcop,  cpu clock=  1.74E+01 peak memory=        36 mb                tot_iter=    1260
 output: invdc_chuanxin.mt0
 sweep: tran tran180  begin, stop_t=  1.00E-07 #sweeps=**** cpu clock=  1.74E+01
 tran: time= 1.0250E-08 tot_iter=     198 conv_iter=      61 cpu clock= 1.74E+01
 tran: time= 2.0250E-08 tot_iter=     383 conv_iter=     116 cpu clock= 1.74E+01
 tran: time= 3.0000E-08 tot_iter=     567 conv_iter=     170 cpu clock= 1.74E+01
 tran: time= 4.0250E-08 tot_iter=     773 conv_iter=     233 cpu clock= 1.74E+01
 tran: time= 5.0250E-08 tot_iter=     996 conv_iter=     298 cpu clock= 1.74E+01
 tran: time= 6.0250E-08 tot_iter=    1199 conv_iter=     356 cpu clock= 1.74E+01
 tran: time= 7.0250E-08 tot_iter=    1384 conv_iter=     411 cpu clock= 1.74E+01
 tran: time= 8.0250E-08 tot_iter=    1576 conv_iter=     467 cpu clock= 1.74E+01
 tran: time= 9.0250E-08 tot_iter=    1761 conv_iter=     522 cpu clock= 1.74E+01
 tran: time= 1.0000E-07 tot_iter=    1951 conv_iter=     577 cpu clock= 1.75E+01
 sweep: tran tran180  end,  cpu clock=  1.75E+01 peak memory=        36 mb
 parameter: width           =    9.40E-05
 dcop: begin dcop,  cpu clock=  1.75E+01
 dcop: end dcop,  cpu clock=  1.75E+01 peak memory=        36 mb                tot_iter=    1267
 output: invdc_chuanxin.mt0
 sweep: tran tran181  begin, stop_t=  1.00E-07 #sweeps=**** cpu clock=  1.75E+01
 tran: time= 1.0250E-08 tot_iter=     196 conv_iter=      61 cpu clock= 1.75E+01
 tran: time= 2.0250E-08 tot_iter=     416 conv_iter=     125 cpu clock= 1.75E+01
 tran: time= 3.0000E-08 tot_iter=     603 conv_iter=     181 cpu clock= 1.75E+01
 tran: time= 4.0250E-08 tot_iter=     826 conv_iter=     246 cpu clock= 1.75E+01
 tran: time= 5.0250E-08 tot_iter=    1016 conv_iter=     303 cpu clock= 1.75E+01
 tran: time= 6.0250E-08 tot_iter=    1237 conv_iter=     367 cpu clock= 1.75E+01
 tran: time= 7.0250E-08 tot_iter=    1427 conv_iter=     424 cpu clock= 1.75E+01
 tran: time= 8.0250E-08 tot_iter=    1648 conv_iter=     488 cpu clock= 1.76E+01
 tran: time= 9.0250E-08 tot_iter=    1832 conv_iter=     542 cpu clock= 1.76E+01
 tran: time= 1.0000E-07 tot_iter=    2060 conv_iter=     609 cpu clock= 1.76E+01
 sweep: tran tran181  end,  cpu clock=  1.76E+01 peak memory=        36 mb
 parameter: width           =    9.45E-05
 dcop: begin dcop,  cpu clock=  1.76E+01
 dcop: end dcop,  cpu clock=  1.76E+01 peak memory=        36 mb                tot_iter=    1274
 output: invdc_chuanxin.mt0
 sweep: tran tran182  begin, stop_t=  1.00E-07 #sweeps=**** cpu clock=  1.76E+01
 tran: time= 1.0250E-08 tot_iter=     197 conv_iter=      61 cpu clock= 1.76E+01
 tran: time= 2.0250E-08 tot_iter=     428 conv_iter=     126 cpu clock= 1.76E+01
 tran: time= 3.0000E-08 tot_iter=     614 conv_iter=     182 cpu clock= 1.76E+01
 tran: time= 4.0250E-08 tot_iter=     830 conv_iter=     245 cpu clock= 1.76E+01
 tran: time= 5.0250E-08 tot_iter=    1079 conv_iter=     315 cpu clock= 1.76E+01
 tran: time= 6.0250E-08 tot_iter=    1290 conv_iter=     376 cpu clock= 1.76E+01
 tran: time= 7.0250E-08 tot_iter=    1472 conv_iter=     432 cpu clock= 1.77E+01
 tran: time= 8.0250E-08 tot_iter=    1661 conv_iter=     489 cpu clock= 1.77E+01
 tran: time= 9.0250E-08 tot_iter=    1877 conv_iter=     551 cpu clock= 1.77E+01
 tran: time= 1.0000E-07 tot_iter=    2065 conv_iter=     607 cpu clock= 1.77E+01
 sweep: tran tran182  end,  cpu clock=  1.77E+01 peak memory=        36 mb
 parameter: width           =    9.50E-05
 dcop: begin dcop,  cpu clock=  1.77E+01
 dcop: end dcop,  cpu clock=  1.77E+01 peak memory=        36 mb                tot_iter=    1281
 output: invdc_chuanxin.mt0
 sweep: tran tran183  begin, stop_t=  1.00E-07 #sweeps=**** cpu clock=  1.77E+01
 tran: time= 1.0250E-08 tot_iter=     196 conv_iter=      61 cpu clock= 1.77E+01
 tran: time= 2.0250E-08 tot_iter=     433 conv_iter=     129 cpu clock= 1.77E+01
 tran: time= 3.0000E-08 tot_iter=     647 conv_iter=     190 cpu clock= 1.77E+01
 tran: time= 4.0250E-08 tot_iter=     838 conv_iter=     248 cpu clock= 1.77E+01
 tran: time= 5.0250E-08 tot_iter=    1050 conv_iter=     309 cpu clock= 1.77E+01
 tran: time= 6.0250E-08 tot_iter=    1250 conv_iter=     367 cpu clock= 1.78E+01
 tran: time= 7.0250E-08 tot_iter=    1463 conv_iter=     428 cpu clock= 1.78E+01
 tran: time= 8.0250E-08 tot_iter=    1665 conv_iter=     486 cpu clock= 1.78E+01
 tran: time= 9.0250E-08 tot_iter=    1892 conv_iter=     551 cpu clock= 1.78E+01
 tran: time= 1.0000E-07 tot_iter=    2099 conv_iter=     612 cpu clock= 1.78E+01
 sweep: tran tran183  end,  cpu clock=  1.78E+01 peak memory=        36 mb
 parameter: width           =    9.55E-05
 dcop: begin dcop,  cpu clock=  1.78E+01
 dcop: end dcop,  cpu clock=  1.78E+01 peak memory=        36 mb                tot_iter=    1288
 output: invdc_chuanxin.mt0
 sweep: tran tran184  begin, stop_t=  1.00E-07 #sweeps=**** cpu clock=  1.78E+01
 tran: time= 1.0250E-08 tot_iter=     192 conv_iter=      60 cpu clock= 1.78E+01
 tran: time= 2.0250E-08 tot_iter=     387 conv_iter=     117 cpu clock= 1.78E+01
 tran: time= 3.0000E-08 tot_iter=     610 conv_iter=     181 cpu clock= 1.78E+01
 tran: time= 4.0250E-08 tot_iter=     781 conv_iter=     236 cpu clock= 1.78E+01
 tran: time= 5.0250E-08 tot_iter=    1024 conv_iter=     304 cpu clock= 1.79E+01
 tran: time= 6.0250E-08 tot_iter=    1209 conv_iter=     360 cpu clock= 1.79E+01
 tran: time= 7.0250E-08 tot_iter=    1402 conv_iter=     417 cpu clock= 1.79E+01
 tran: time= 8.0250E-08 tot_iter=    1623 conv_iter=     481 cpu clock= 1.79E+01
 tran: time= 9.0250E-08 tot_iter=    1807 conv_iter=     537 cpu clock= 1.79E+01
 tran: time= 1.0000E-07 tot_iter=    1997 conv_iter=     593 cpu clock= 1.79E+01
 sweep: tran tran184  end,  cpu clock=  1.79E+01 peak memory=        36 mb
 parameter: width           =    9.60E-05
 dcop: begin dcop,  cpu clock=  1.79E+01
 dcop: end dcop,  cpu clock=  1.79E+01 peak memory=        36 mb                tot_iter=    1295
 output: invdc_chuanxin.mt0
 sweep: tran tran185  begin, stop_t=  1.00E-07 #sweeps=**** cpu clock=  1.79E+01
 tran: time= 1.0250E-08 tot_iter=     193 conv_iter=      60 cpu clock= 1.79E+01
 tran: time= 2.0193E-08 tot_iter=     417 conv_iter=     126 cpu clock= 1.79E+01
 tran: time= 3.0000E-08 tot_iter=     613 conv_iter=     187 cpu clock= 1.80E+01
 tran: time= 4.0250E-08 tot_iter=     840 conv_iter=     254 cpu clock= 1.80E+01
 tran: time= 5.0250E-08 tot_iter=    1025 conv_iter=     310 cpu clock= 1.80E+01
 tran: time= 6.0250E-08 tot_iter=    1221 conv_iter=     369 cpu clock= 1.80E+01
 tran: time= 7.0250E-08 tot_iter=    1432 conv_iter=     430 cpu clock= 1.80E+01
 tran: time= 8.0250E-08 tot_iter=    1655 conv_iter=     496 cpu clock= 1.80E+01
 tran: time= 9.0250E-08 tot_iter=    1880 conv_iter=     562 cpu clock= 1.80E+01
 tran: time= 1.0000E-07 tot_iter=    2089 conv_iter=     622 cpu clock= 1.80E+01
 sweep: tran tran185  end,  cpu clock=  1.80E+01 peak memory=        36 mb
 parameter: width           =    9.65E-05
 dcop: begin dcop,  cpu clock=  1.80E+01
 dcop: end dcop,  cpu clock=  1.80E+01 peak memory=        36 mb                tot_iter=    1302
 output: invdc_chuanxin.mt0
 sweep: tran tran186  begin, stop_t=  1.00E-07 #sweeps=**** cpu clock=  1.80E+01
 tran: time= 1.0250E-08 tot_iter=     193 conv_iter=      60 cpu clock= 1.81E+01
 tran: time= 2.0250E-08 tot_iter=     422 conv_iter=     128 cpu clock= 1.81E+01
 tran: time= 3.0000E-08 tot_iter=     644 conv_iter=     193 cpu clock= 1.81E+01
 tran: time= 4.0250E-08 tot_iter=     872 conv_iter=     260 cpu clock= 1.81E+01
 tran: time= 5.0250E-08 tot_iter=    1056 conv_iter=     316 cpu clock= 1.81E+01
 tran: time= 6.0250E-08 tot_iter=    1275 conv_iter=     380 cpu clock= 1.81E+01
 tran: time= 7.0250E-08 tot_iter=    1499 conv_iter=     446 cpu clock= 1.81E+01
 tran: time= 8.0250E-08 tot_iter=    1724 conv_iter=     512 cpu clock= 1.81E+01
 tran: time= 9.0250E-08 tot_iter=    1949 conv_iter=     578 cpu clock= 1.81E+01
 tran: time= 1.0000E-07 tot_iter=    2135 conv_iter=     633 cpu clock= 1.81E+01
 sweep: tran tran186  end,  cpu clock=  1.81E+01 peak memory=        36 mb
 parameter: width           =    9.70E-05
 dcop: begin dcop,  cpu clock=  1.81E+01
 dcop: end dcop,  cpu clock=  1.81E+01 peak memory=        36 mb                tot_iter=    1309
 output: invdc_chuanxin.mt0
 sweep: tran tran187  begin, stop_t=  1.00E-07 #sweeps=**** cpu clock=  1.82E+01
 tran: time= 1.0250E-08 tot_iter=     193 conv_iter=      60 cpu clock= 1.82E+01
 tran: time= 2.0250E-08 tot_iter=     376 conv_iter=     116 cpu clock= 1.82E+01
 tran: time= 3.0000E-08 tot_iter=     593 conv_iter=     180 cpu clock= 1.82E+01
 tran: time= 4.0250E-08 tot_iter=     800 conv_iter=     240 cpu clock= 1.82E+01
 tran: time= 5.0250E-08 tot_iter=     983 conv_iter=     296 cpu clock= 1.82E+01
 tran: time= 6.0250E-08 tot_iter=    1166 conv_iter=     352 cpu clock= 1.82E+01
 tran: time= 7.0250E-08 tot_iter=    1349 conv_iter=     408 cpu clock= 1.82E+01
 tran: time= 8.0250E-08 tot_iter=    1531 conv_iter=     464 cpu clock= 1.82E+01
 tran: time= 9.0250E-08 tot_iter=    1714 conv_iter=     520 cpu clock= 1.82E+01
 tran: time= 1.0000E-07 tot_iter=    1894 conv_iter=     575 cpu clock= 1.82E+01
 sweep: tran tran187  end,  cpu clock=  1.82E+01 peak memory=        36 mb
 parameter: width           =    9.75E-05
 dcop: begin dcop,  cpu clock=  1.83E+01
 dcop: end dcop,  cpu clock=  1.83E+01 peak memory=        36 mb                tot_iter=    1316
 output: invdc_chuanxin.mt0
 sweep: tran tran188  begin, stop_t=  1.00E-07 #sweeps=**** cpu clock=  1.83E+01
 tran: time= 1.0250E-08 tot_iter=     232 conv_iter=      70 cpu clock= 1.83E+01
 tran: time= 2.0250E-08 tot_iter=     442 conv_iter=     131 cpu clock= 1.83E+01
 tran: time= 3.0000E-08 tot_iter=     670 conv_iter=     196 cpu clock= 1.83E+01
 tran: time= 4.0250E-08 tot_iter=     857 conv_iter=     253 cpu clock= 1.83E+01
 tran: time= 5.0211E-08 tot_iter=    1075 conv_iter=     318 cpu clock= 1.83E+01
 tran: time= 6.0250E-08 tot_iter=    1274 conv_iter=     378 cpu clock= 1.83E+01
 tran: time= 7.0250E-08 tot_iter=    1496 conv_iter=     444 cpu clock= 1.83E+01
 tran: time= 8.0250E-08 tot_iter=    1706 conv_iter=     505 cpu clock= 1.83E+01
 tran: time= 9.0250E-08 tot_iter=    1939 conv_iter=     572 cpu clock= 1.83E+01
 tran: time= 1.0000E-07 tot_iter=    2165 conv_iter=     636 cpu clock= 1.84E+01
 sweep: tran tran188  end,  cpu clock=  1.84E+01 peak memory=        36 mb
 parameter: width           =    9.80E-05
 dcop: begin dcop,  cpu clock=  1.84E+01
 dcop: end dcop,  cpu clock=  1.84E+01 peak memory=        36 mb                tot_iter=    1323
 output: invdc_chuanxin.mt0
 sweep: tran tran189  begin, stop_t=  1.00E-07 #sweeps=**** cpu clock=  1.84E+01
 tran: time= 1.0250E-08 tot_iter=     233 conv_iter=      70 cpu clock= 1.84E+01
 tran: time= 2.0250E-08 tot_iter=     457 conv_iter=     136 cpu clock= 1.84E+01
 tran: time= 3.0000E-08 tot_iter=     651 conv_iter=     194 cpu clock= 1.84E+01
 tran: time= 4.0250E-08 tot_iter=     878 conv_iter=     261 cpu clock= 1.84E+01
 tran: time= 5.0250E-08 tot_iter=    1104 conv_iter=     327 cpu clock= 1.84E+01
 tran: time= 6.0250E-08 tot_iter=    1328 conv_iter=     391 cpu clock= 1.84E+01
 tran: time= 7.0250E-08 tot_iter=    1553 conv_iter=     457 cpu clock= 1.84E+01
 tran: time= 8.0250E-08 tot_iter=    1746 conv_iter=     515 cpu clock= 1.85E+01
 tran: time= 9.0250E-08 tot_iter=    1957 conv_iter=     576 cpu clock= 1.85E+01
 tran: time= 1.0000E-07 tot_iter=    2181 conv_iter=     641 cpu clock= 1.85E+01
 sweep: tran tran189  end,  cpu clock=  1.85E+01 peak memory=        36 mb
 parameter: width           =    9.85E-05
 dcop: begin dcop,  cpu clock=  1.85E+01
 dcop: end dcop,  cpu clock=  1.85E+01 peak memory=        36 mb                tot_iter=    1330
 output: invdc_chuanxin.mt0
 sweep: tran tran190  begin, stop_t=  1.00E-07 #sweeps=**** cpu clock=  1.85E+01
 tran: time= 1.0250E-08 tot_iter=     232 conv_iter=      70 cpu clock= 1.85E+01
 tran: time= 2.0250E-08 tot_iter=     457 conv_iter=     136 cpu clock= 1.85E+01
 tran: time= 3.0000E-08 tot_iter=     687 conv_iter=     202 cpu clock= 1.85E+01
 tran: time= 4.0250E-08 tot_iter=     885 conv_iter=     261 cpu clock= 1.85E+01
 tran: time= 5.0250E-08 tot_iter=    1076 conv_iter=     319 cpu clock= 1.86E+01
 tran: time= 6.0250E-08 tot_iter=    1300 conv_iter=     384 cpu clock= 1.86E+01
 tran: time= 7.0250E-08 tot_iter=    1523 conv_iter=     450 cpu clock= 1.86E+01
 tran: time= 8.0250E-08 tot_iter=    1749 conv_iter=     516 cpu clock= 1.86E+01
 tran: time= 9.0250E-08 tot_iter=    1978 conv_iter=     581 cpu clock= 1.86E+01
 tran: time= 1.0000E-07 tot_iter=    2189 conv_iter=     641 cpu clock= 1.86E+01
 sweep: tran tran190  end,  cpu clock=  1.86E+01 peak memory=        36 mb
 parameter: width           =    9.90E-05
 dcop: begin dcop,  cpu clock=  1.86E+01
 dcop: end dcop,  cpu clock=  1.86E+01 peak memory=        36 mb                tot_iter=    1337
 output: invdc_chuanxin.mt0
 sweep: tran tran191  begin, stop_t=  1.00E-07 #sweeps=**** cpu clock=  1.86E+01
 tran: time= 1.0250E-08 tot_iter=     231 conv_iter=      70 cpu clock= 1.86E+01
 tran: time= 2.0250E-08 tot_iter=     451 conv_iter=     135 cpu clock= 1.86E+01
 tran: time= 3.0000E-08 tot_iter=     670 conv_iter=     199 cpu clock= 1.86E+01
 tran: time= 4.0250E-08 tot_iter=     860 conv_iter=     255 cpu clock= 1.87E+01
 tran: time= 5.0250E-08 tot_iter=    1071 conv_iter=     316 cpu clock= 1.87E+01
 tran: time= 6.0250E-08 tot_iter=    1304 conv_iter=     383 cpu clock= 1.87E+01
 tran: time= 7.0250E-08 tot_iter=    1512 conv_iter=     445 cpu clock= 1.87E+01
 tran: time= 8.0250E-08 tot_iter=    1701 conv_iter=     501 cpu clock= 1.87E+01
 tran: time= 9.0250E-08 tot_iter=    1890 conv_iter=     557 cpu clock= 1.87E+01
 tran: time= 1.0000E-07 tot_iter=    2076 conv_iter=     612 cpu clock= 1.87E+01
 sweep: tran tran191  end,  cpu clock=  1.87E+01 peak memory=        36 mb
 parameter: width           =    9.95E-05
 dcop: begin dcop,  cpu clock=  1.87E+01
 dcop: end dcop,  cpu clock=  1.87E+01 peak memory=        36 mb                tot_iter=    1344
 output: invdc_chuanxin.mt0
 sweep: tran tran192  begin, stop_t=  1.00E-07 #sweeps=**** cpu clock=  1.87E+01
 tran: time= 1.0250E-08 tot_iter=     231 conv_iter=      70 cpu clock= 1.87E+01
 tran: time= 2.0250E-08 tot_iter=     455 conv_iter=     135 cpu clock= 1.88E+01
 tran: time= 3.0000E-08 tot_iter=     641 conv_iter=     190 cpu clock= 1.88E+01
 tran: time= 4.0250E-08 tot_iter=     843 conv_iter=     251 cpu clock= 1.88E+01
 tran: time= 5.0250E-08 tot_iter=    1045 conv_iter=     310 cpu clock= 1.88E+01
 tran: time= 6.0250E-08 tot_iter=    1239 conv_iter=     368 cpu clock= 1.88E+01
 tran: time= 7.0250E-08 tot_iter=    1428 conv_iter=     424 cpu clock= 1.88E+01
 tran: time= 8.0250E-08 tot_iter=    1628 conv_iter=     484 cpu clock= 1.88E+01
 tran: time= 9.0250E-08 tot_iter=    1859 conv_iter=     549 cpu clock= 1.88E+01
 tran: time= 1.0000E-07 tot_iter=    2042 conv_iter=     606 cpu clock= 1.88E+01
 sweep: tran tran192  end,  cpu clock=  1.88E+01 peak memory=        36 mb
 parameter: width           =    1.00E-04
 dcop: begin dcop,  cpu clock=  1.88E+01
 dcop: end dcop,  cpu clock=  1.88E+01 peak memory=        36 mb                tot_iter=    1351
 output: invdc_chuanxin.mt0
 sweep: tran tran193  begin, stop_t=  1.00E-07 #sweeps=**** cpu clock=  1.89E+01
 tran: time= 1.0250E-08 tot_iter=     183 conv_iter=      56 cpu clock= 1.89E+01
 tran: time= 2.0250E-08 tot_iter=     378 conv_iter=     115 cpu clock= 1.89E+01
 tran: time= 3.0000E-08 tot_iter=     581 conv_iter=     176 cpu clock= 1.89E+01
 tran: time= 4.0250E-08 tot_iter=     817 conv_iter=     243 cpu clock= 1.89E+01
 tran: time= 5.0250E-08 tot_iter=    1021 conv_iter=     302 cpu clock= 1.89E+01
 tran: time= 6.0250E-08 tot_iter=    1247 conv_iter=     368 cpu clock= 1.89E+01
 tran: time= 7.0250E-08 tot_iter=    1472 conv_iter=     435 cpu clock= 1.89E+01
 tran: time= 8.0250E-08 tot_iter=    1678 conv_iter=     496 cpu clock= 1.89E+01
 tran: time= 9.0118E-08 tot_iter=    1896 conv_iter=     561 cpu clock= 1.89E+01
 tran: time= 1.0000E-07 tot_iter=    2137 conv_iter=     629 cpu clock= 1.89E+01
 sweep: tran tran193  end,  cpu clock=  1.89E+01 peak memory=        36 mb
 sweep: parameter       parameter       1 end
>info:         ***** hspice job concluded
 lic: Release hspice token(s)
