$DATA1 SOURCE='HSPICE' VERSION='G-2012.06-SP1 32-BIT'
.TITLE '*ac analysis for inv'
 width            vmax             vmin             tphl              
                  tplh             tp               temper            
                  alter#            
  4.000e-06          2.7316          -0.8158         3.455e-10        
                   4.403e-09        2.374e-09         25.0000         
                  1                 
  4.500e-06          2.7253          -0.8162         3.587e-10        
                   4.400e-09        2.380e-09         25.0000         
                  1                 
  5.000e-06          2.7194          -0.8148         3.761e-10        
                   4.394e-09        2.385e-09         25.0000         
                  1                 
  5.500e-06          2.7232          -0.8205         3.916e-10        
                   4.367e-09        2.379e-09         25.0000         
                  1                 
  6.000e-06          2.7090          -0.8810         4.137e-10        
                   4.337e-09        2.375e-09         25.0000         
                  1                 
  6.500e-06          2.7045          -0.8174         4.073e-10        
                   4.328e-09        2.368e-09         25.0000         
                  1                 
  7.000e-06          2.7003          -0.8402         4.154e-10        
                   4.299e-09        2.357e-09         25.0000         
                  1                 
  7.500e-06          2.6964          -0.8508         4.176e-10        
                   4.279e-09        2.348e-09         25.0000         
                  1                 
  8.000e-06          2.6928          -0.8873         4.253e-10        
                   4.252e-09        2.339e-09         25.0000         
                  1                 
  8.500e-06          2.6896          -0.9032         4.380e-10        
                   4.100e-09        2.269e-09         25.0000         
                  1                 
  9.000e-06          2.6865          -0.8910         4.404e-10        
                   3.950e-09        2.195e-09         25.0000         
                  1                 
  9.500e-06          2.6837          -0.9124         4.492e-10        
                   3.816e-09        2.133e-09         25.0000         
                  1                 
  1.000e-05          2.6529          -0.8263         4.480e-10        
                   3.723e-09        2.086e-09         25.0000         
                  1                 
  1.050e-05          2.6521          -0.9169         4.829e-10        
                   3.580e-09        2.032e-09         25.0000         
                  1                 
  1.100e-05          2.6513          -0.8472         4.866e-10        
                   3.493e-09        1.990e-09         25.0000         
                  1                 
  1.150e-05          2.6505          -0.9216         5.074e-10        
                   3.337e-09        1.922e-09         25.0000         
                  1                 
  1.200e-05          2.6498          -0.8473         4.931e-10        
                   3.322e-09        1.908e-09         25.0000         
                  1                 
  1.250e-05          2.6543          -0.8844         4.979e-10        
                   3.204e-09        1.851e-09         25.0000         
                  1                 
  1.300e-05          2.6584          -0.9252         4.882e-10        
                   3.110e-09        1.799e-09         25.0000         
                  1                 
  1.350e-05          2.6478          -0.8169         4.722e-10        
                   3.101e-09        1.787e-09         25.0000         
                  1                 
  1.400e-05          2.6472          -0.9288         5.030e-10        
                   2.950e-09        1.726e-09         25.0000         
                  1                 
  1.450e-05          2.6466          -0.8196         4.874e-10        
                   2.963e-09        1.725e-09         25.0000         
                  1                 
  1.500e-05          2.6545          -0.8218         4.908e-10        
                   2.907e-09        1.699e-09         25.0000         
                  1                 
  1.550e-05          2.6552          -0.8554         5.061e-10        
                   2.825e-09        1.665e-09         25.0000         
                  1                 
  1.600e-05          2.6623          -0.8291         5.022e-10        
                   2.807e-09        1.655e-09         25.0000         
                  1                 
  1.650e-05          2.6629          -0.8614         5.177e-10        
                   2.733e-09        1.625e-09         25.0000         
                  1                 
  1.700e-05          2.6439          -0.8774         5.506e-10        
                   2.666e-09        1.608e-09         25.0000         
                  1                 
  1.750e-05          2.6582          -0.8206         5.251e-10        
                   2.652e-09        1.588e-09         25.0000         
                  1                 
  1.800e-05          2.6873          -0.8687         5.312e-10        
                   2.588e-09        1.559e-09         25.0000         
                  1                 
  1.850e-05          2.6504          -0.8247         5.512e-10        
                   2.564e-09        1.557e-09         25.0000         
                  1                 
  1.900e-05          2.6419          -0.8783         5.670e-10        
                   2.479e-09        1.523e-09         25.0000         
                  1                 
  1.950e-05          2.6414          -0.8208         5.576e-10        
                   2.471e-09        1.514e-09         25.0000         
                  1                 
  2.000e-05          2.6702          -0.8226         5.552e-10        
                   2.452e-09        1.504e-09         25.0000         
                  1                 
  2.050e-05          2.6549          -0.8237         5.619e-10        
                   2.407e-09        1.485e-09         25.0000         
                  1                 
  2.100e-05          2.6400          -0.8364         5.735e-10        
                   2.359e-09        1.466e-09         25.0000         
                  1                 
  2.150e-05          2.6517          -0.8784         5.762e-10        
                   2.287e-09        1.432e-09         25.0000         
                  1                 
  2.200e-05          2.6534          -0.8686         5.793e-10        
                   2.261e-09        1.420e-09         25.0000         
                  1                 
  2.250e-05          2.6386          -0.8571         5.857e-10        
                   2.233e-09        1.409e-09         25.0000         
                  1                 
  2.300e-05          2.6382          -0.8393         5.884e-10        
                   2.228e-09        1.408e-09         25.0000         
                  1                 
  2.350e-05          2.6377          -0.8561         6.078e-10        
                   2.203e-09        1.405e-09         25.0000         
                  1                 
  2.400e-05          2.6372          -0.8258         6.207e-10        
                   2.188e-09        1.404e-09         25.0000         
                  1                 
  2.450e-05          2.6367          -0.8686         6.373e-10        
                   2.132e-09        1.385e-09         25.0000         
                  1                 
  2.500e-05          2.6362          -0.8206         6.299e-10        
                   2.138e-09        1.384e-09         25.0000         
                  1                 
  2.550e-05          2.6357          -0.8472         6.222e-10        
                   2.087e-09        1.355e-09         25.0000         
                  1                 
  2.600e-05          2.6352          -0.8258         6.242e-10        
                   2.077e-09        1.350e-09         25.0000         
                  1                 
  2.650e-05          2.6360          -0.8426         6.339e-10        
                   2.061e-09        1.347e-09         25.0000         
                  1                 
  2.700e-05          2.6341          -0.8194         6.459e-10        
                   2.042e-09        1.344e-09         25.0000         
                  1                 
  2.750e-05          2.6336          -0.8380         6.714e-10        
                   1.989e-09        1.330e-09         25.0000         
                  1                 
  2.800e-05          2.6330          -0.8375         6.818e-10        
                   1.994e-09        1.338e-09         25.0000         
                  1                 
  2.850e-05          2.6393          -0.8596         6.930e-10        
                   1.967e-09        1.330e-09         25.0000         
                  1                 
  2.900e-05          2.6464          -0.8685         6.881e-10        
                   1.916e-09        1.302e-09         25.0000         
                  1                 
  2.950e-05          2.6431          -0.8603         6.928e-10        
                   1.899e-09        1.296e-09         25.0000         
                  1                 
  3.000e-05          2.6305          -0.8274         6.956e-10        
                   1.892e-09        1.294e-09         25.0000         
                  1                 
  3.050e-05          2.6298          -0.8581         7.088e-10        
                   1.896e-09        1.302e-09         25.0000         
                  1                 
  3.100e-05          2.6310          -0.8633         7.097e-10        
                   1.877e-09        1.293e-09         25.0000         
                  1                 
  3.150e-05          2.6323          -0.8244         6.848e-10        
                   1.857e-09        1.271e-09         25.0000         
                  1                 
  3.200e-05          2.6275          -0.8591         7.098e-10        
                   1.823e-09        1.266e-09         25.0000         
                  1                 
  3.250e-05          2.6315          -0.8279         7.034e-10        
                   1.802e-09        1.252e-09         25.0000         
                  1                 
  3.300e-05          2.6260          -0.8429         7.014e-10        
                   1.781e-09        1.241e-09         25.0000         
                  1                 
  3.350e-05          2.6260          -0.8415         7.022e-10        
                   1.770e-09        1.236e-09         25.0000         
                  1                 
  3.400e-05          2.6277          -0.8528         7.224e-10        
                   1.774e-09        1.248e-09         25.0000         
                  1                 
  3.450e-05          2.6276          -0.8544         7.287e-10        
                   1.739e-09        1.234e-09         25.0000         
                  1                 
  3.500e-05          2.6298          -0.8237         7.240e-10        
                   1.760e-09        1.242e-09         25.0000         
                  1                 
  3.550e-05          2.6462          -0.8259         7.261e-10        
                   1.733e-09        1.229e-09         25.0000         
                  1                 
  3.600e-05          2.6302          -0.8284         7.372e-10        
                   1.720e-09        1.228e-09         25.0000         
                  1                 
  3.650e-05          2.6310          -0.8569         7.448e-10        
                   1.707e-09        1.226e-09         25.0000         
                  1                 
  3.700e-05          2.6319          -0.8612         7.438e-10        
                   1.694e-09        1.219e-09         25.0000         
                  1                 
  3.750e-05          2.6328          -0.8612         7.724e-10        
                   1.683e-09        1.227e-09         25.0000         
                  1                 
  3.800e-05          2.6338          -0.8641         7.729e-10        
                   1.670e-09        1.222e-09         25.0000         
                  1                 
  3.850e-05          2.6337          -0.8609         7.794e-10        
                   1.661e-09        1.220e-09         25.0000         
                  1                 
  3.900e-05          2.6336          -0.8241         7.740e-10        
                   1.665e-09        1.219e-09         25.0000         
                  1                 
  3.950e-05          2.6335          -0.8412         7.794e-10        
                   1.624e-09        1.202e-09         25.0000         
                  1                 
  4.000e-05          2.6335          -0.8442         7.781e-10        
                   1.611e-09        1.194e-09         25.0000         
                  1                 
  4.050e-05          2.6334          -0.8453         7.822e-10        
                   1.613e-09        1.198e-09         25.0000         
                  1                 
  4.100e-05          2.6417          -0.8448         8.145e-10        
                   1.594e-09        1.204e-09         25.0000         
                  1                 
  4.150e-05          2.6333          -0.8320         8.276e-10        
                   1.571e-09        1.199e-09         25.0000         
                  1                 
  4.200e-05          2.6333          -0.8425         8.238e-10        
                   1.556e-09        1.190e-09         25.0000         
                  1                 
  4.250e-05          2.6340          -0.8506         8.108e-10        
                   1.555e-09        1.183e-09         25.0000         
                  1                 
  4.300e-05          2.6332          -0.8332         8.103e-10        
                   1.571e-09        1.191e-09         25.0000         
                  1                 
  4.350e-05          2.6332          -0.8332         8.102e-10        
                   1.545e-09        1.178e-09         25.0000         
                  1                 
  4.400e-05          2.6331          -0.8339         8.090e-10        
                   1.541e-09        1.175e-09         25.0000         
                  1                 
  4.450e-05          2.6331          -0.8338         8.805e-10        
                   1.531e-09        1.206e-09         25.0000         
                  1                 
  4.500e-05          2.6331          -0.8342         8.856e-10        
                   1.506e-09        1.196e-09         25.0000         
                  1                 
  4.550e-05          2.6330          -0.8344         8.895e-10        
                   1.510e-09        1.200e-09         25.0000         
                  1                 
  4.600e-05          2.6330          -0.8719         9.006e-10        
                   1.475e-09        1.188e-09         25.0000         
                  1                 
  4.650e-05          2.6330          -0.8330         8.950e-10        
                   1.484e-09        1.189e-09         25.0000         
                  1                 
  4.700e-05          2.6330          -0.8331         8.970e-10        
                   1.476e-09        1.187e-09         25.0000         
                  1                 
  4.750e-05          2.6330          -0.8333         8.986e-10        
                   1.474e-09        1.186e-09         25.0000         
                  1                 
  4.800e-05          2.6330          -0.8351         9.002e-10        
                   1.464e-09        1.182e-09         25.0000         
                  1                 
  4.850e-05          2.6329          -0.8354         9.012e-10        
                   1.464e-09        1.183e-09         25.0000         
                  1                 
  4.900e-05          2.6329          -0.8352         9.019e-10        
                   1.443e-09        1.172e-09         25.0000         
                  1                 
  4.950e-05          2.6329          -0.8344         9.023e-10        
                   1.455e-09        1.179e-09         25.0000         
                  1                 
  5.000e-05          2.6330          -0.8303         9.019e-10        
                   1.438e-09        1.170e-09         25.0000         
                  1                 
  5.050e-05          2.6338          -0.8537         9.072e-10        
                   1.412e-09        1.160e-09         25.0000         
                  1                 
  5.100e-05          2.6347          -0.8333         9.032e-10        
                   1.425e-09        1.164e-09         25.0000         
                  1                 
  5.150e-05          2.6357          -0.8303         9.066e-10        
                   1.413e-09        1.160e-09         25.0000         
                  1                 
  5.200e-05          2.6367          -0.8680         9.254e-10        
                   1.425e-09        1.175e-09         25.0000         
                  1                 
  5.250e-05          2.6378          -0.8543         9.266e-10        
                   1.387e-09        1.157e-09         25.0000         
                  1                 
  5.300e-05          2.6323          -0.8632         9.360e-10        
                   1.395e-09        1.165e-09         25.0000         
                  1                 
  5.350e-05          2.6453          -0.8693         9.388e-10        
                   1.409e-09        1.174e-09         25.0000         
                  1                 
  5.400e-05          2.6311          -0.8553         9.442e-10        
                   1.371e-09        1.158e-09         25.0000         
                  1                 
  5.450e-05          2.6306          -0.8354         9.434e-10        
                   1.406e-09        1.175e-09         25.0000         
                  1                 
  5.500e-05          2.6301          -0.8763         9.721e-10        
                   1.343e-09        1.158e-09         25.0000         
                  1                 
  5.550e-05          2.6296          -0.8669         1.002e-09        
                   1.358e-09        1.180e-09         25.0000         
                  1                 
  5.600e-05          2.7111          -0.8637         9.898e-10        
                   1.401e-09        1.195e-09         25.0000         
                  1                 
  5.650e-05          2.6288          -0.8688         1.000e-09        
                   1.331e-09        1.166e-09         25.0000         
                  1                 
  5.700e-05          2.6308          -0.8689         9.880e-10        
                   1.333e-09        1.161e-09         25.0000         
                  1                 
  5.750e-05          2.6280          -0.8665         9.798e-10        
                   1.330e-09        1.155e-09         25.0000         
                  1                 
  5.800e-05          2.6277          -0.8689         9.813e-10        
                   1.311e-09        1.146e-09         25.0000         
                  1                 
  5.850e-05          2.6273          -0.8696         9.908e-10        
                   1.320e-09        1.156e-09         25.0000         
                  1                 
  5.900e-05          2.6270          -0.8587         1.004e-09        
                   1.304e-09        1.154e-09         25.0000         
                  1                 
  5.950e-05          2.6267          -0.8698         1.023e-09        
                   1.310e-09        1.167e-09         25.0000         
                  1                 
  6.000e-05          2.6265          -0.8631         1.038e-09        
                   1.291e-09        1.165e-09         25.0000         
                  1                 
  6.050e-05          2.6422          -0.8508         1.046e-09        
                   1.314e-09        1.180e-09         25.0000         
                  1                 
  6.100e-05          2.6260          -0.8671         1.064e-09        
                   1.291e-09        1.178e-09         25.0000         
                  1                 
  6.150e-05          2.6258          -0.8382         1.066e-09        
                   1.313e-09        1.190e-09         25.0000         
                  1                 
  6.200e-05          2.6255          -0.8603         1.075e-09        
                   1.281e-09        1.178e-09         25.0000         
                  1                 
  6.250e-05          2.6254          -0.8449         1.072e-09        
                   1.284e-09        1.178e-09         25.0000         
                  1                 
  6.300e-05          2.6252          -0.8398         1.066e-09        
                   1.301e-09        1.184e-09         25.0000         
                  1                 
  6.350e-05          2.6282          -0.8399         1.057e-09        
                   1.294e-09        1.176e-09         25.0000         
                  1                 
  6.400e-05          2.6248          -0.8668         1.053e-09        
                   1.260e-09        1.157e-09         25.0000         
                  1                 
  6.450e-05          2.6247          -0.8451         1.036e-09        
                   1.267e-09        1.152e-09         25.0000         
                  1                 
  6.500e-05          2.6246          -0.8712         1.050e-09        
                   1.235e-09        1.143e-09         25.0000         
                  1                 
  6.550e-05          2.6244          -0.8698         1.053e-09        
                   1.259e-09        1.156e-09         25.0000         
                  1                 
  6.600e-05          2.6243          -0.8688         1.055e-09        
                   1.230e-09        1.143e-09         25.0000         
                  1                 
  6.650e-05          2.6242          -0.8668         1.060e-09        
                   1.228e-09        1.144e-09         25.0000         
                  1                 
  6.700e-05          2.6241          -0.8626         1.065e-09        
                   1.226e-09        1.145e-09         25.0000         
                  1                 
  6.750e-05          2.6240          -0.8479         1.066e-09        
                   1.236e-09        1.151e-09         25.0000         
                  1                 
  6.800e-05          2.6240          -0.8412         1.070e-09        
                   1.237e-09        1.153e-09         25.0000         
                  1                 
  6.850e-05          2.6239          -0.8590         1.081e-09        
                   1.236e-09        1.159e-09         25.0000         
                  1                 
  6.900e-05          2.6238          -0.8715         1.091e-09        
                   1.201e-09        1.146e-09         25.0000         
                  1                 
  6.950e-05          2.6237          -0.8767         1.098e-09        
                   1.203e-09        1.150e-09         25.0000         
                  1                 
  7.000e-05          2.6286          -0.8459         1.092e-09        
                   1.220e-09        1.156e-09         25.0000         
                  1                 
  7.050e-05          2.6236          -0.8484         1.099e-09        
                   1.222e-09        1.161e-09         25.0000         
                  1                 
  7.100e-05          2.6235          -0.8651         1.109e-09        
                   1.218e-09        1.164e-09         25.0000         
                  1                 
  7.150e-05          2.6235          -0.8415         1.107e-09        
                   1.202e-09        1.154e-09         25.0000         
                  1                 
  7.200e-05          2.6234          -0.8600         1.117e-09        
                   1.186e-09        1.152e-09         25.0000         
                  1                 
  7.250e-05          2.6234          -0.8425         1.116e-09        
                   1.195e-09        1.156e-09         25.0000         
                  1                 
  7.300e-05          2.6233          -0.8441         1.121e-09        
                   1.191e-09        1.156e-09         25.0000         
                  1                 
  7.350e-05          2.6249          -0.8427         1.124e-09        
                   1.187e-09        1.155e-09         25.0000         
                  1                 
  7.400e-05          2.6233          -0.8416         1.128e-09        
                   1.185e-09        1.157e-09         25.0000         
                  1                 
  7.450e-05          2.6233          -0.8833         1.142e-09        
                   1.157e-09        1.149e-09         25.0000         
                  1                 
  7.500e-05          2.6232          -0.8431         1.148e-09        
                   1.182e-09        1.165e-09         25.0000         
                  1                 
  7.550e-05          2.6246          -0.8369         1.150e-09        
                   1.189e-09        1.170e-09         25.0000         
                  1                 
  7.600e-05          2.6207          -0.8397         1.157e-09        
                   1.172e-09        1.164e-09         25.0000         
                  1                 
  7.650e-05          2.6215          -0.8419         1.162e-09        
                   1.169e-09        1.165e-09         25.0000         
                  1                 
  7.700e-05          2.6388          -0.8436         1.161e-09        
                   1.175e-09        1.168e-09         25.0000         
                  1                 
  7.750e-05          2.6205          -0.8412         1.169e-09        
                   1.158e-09        1.164e-09         25.0000         
                  1                 
  7.800e-05          2.6383          -0.8675         1.175e-09        
                   1.155e-09        1.165e-09         25.0000         
                  1                 
  7.850e-05          2.6204          -0.8422         1.176e-09        
                   1.150e-09        1.163e-09         25.0000         
                  1                 
  7.900e-05          2.6203          -0.8386         1.178e-09        
                   1.169e-09        1.173e-09         25.0000         
                  1                 
  7.950e-05          2.6218          -0.8698         1.188e-09        
                   1.137e-09        1.162e-09         25.0000         
                  1                 
  8.000e-05          2.6204          -0.8675         1.191e-09        
                   1.126e-09        1.158e-09         25.0000         
                  1                 
  8.050e-05          2.6222          -0.8735         1.195e-09        
                   1.128e-09        1.161e-09         25.0000         
                  1                 
  8.100e-05          2.6201          -0.8689         1.199e-09        
                   1.148e-09        1.173e-09         25.0000         
                  1                 
  8.150e-05          2.6200          -0.8423         1.196e-09        
                   1.137e-09        1.167e-09         25.0000         
                  1                 
  8.200e-05          2.6235          -0.8444         1.247e-09        
                   1.135e-09        1.191e-09         25.0000         
                  1                 
  8.250e-05          2.6255          -0.8412         1.258e-09        
                   1.117e-09        1.187e-09         25.0000         
                  1                 
  8.300e-05          2.6236          -0.8696         1.275e-09        
                   1.129e-09        1.202e-09         25.0000         
                  1                 
  8.350e-05          2.6236          -0.8625         1.283e-09        
                   1.104e-09        1.193e-09         25.0000         
                  1                 
  8.400e-05          2.6237          -0.8720         1.294e-09        
                   1.101e-09        1.198e-09         25.0000         
                  1                 
  8.450e-05          2.6197          -0.8636         1.260e-09        
                   1.108e-09        1.184e-09         25.0000         
                  1                 
  8.500e-05          2.6237          -0.8525         1.271e-09        
                   1.113e-09        1.192e-09         25.0000         
                  1                 
  8.550e-05          2.6460          -0.8663         1.283e-09        
                   1.114e-09        1.198e-09         25.0000         
                  1                 
  8.600e-05          2.6200          -0.8425         1.295e-09        
                   1.096e-09        1.195e-09         25.0000         
                  1                 
  8.650e-05          2.6202          -0.8408         1.304e-09        
                   1.106e-09        1.205e-09         25.0000         
                  1                 
  8.700e-05          2.6197          -0.8680         1.320e-09        
                   1.108e-09        1.214e-09         25.0000         
                  1                 
  8.750e-05          2.6226          -0.8566         1.326e-09        
                   1.121e-09        1.224e-09         25.0000         
                  1                 
  8.800e-05          2.6234          -0.8724         1.338e-09        
                   1.072e-09        1.205e-09         25.0000         
                  1                 
  8.850e-05          2.6194          -0.8437         1.340e-09        
                   1.082e-09        1.211e-09         25.0000         
                  1                 
  8.900e-05          2.6203          -0.8738         1.354e-09        
                   1.073e-09        1.214e-09         25.0000         
                  1                 
  8.950e-05          2.6218          -0.8428         1.353e-09        
                   1.076e-09        1.215e-09         25.0000         
                  1                 
  9.000e-05          2.6193          -0.8538         1.363e-09        
                   1.068e-09        1.216e-09         25.0000         
                  1                 
  9.050e-05          2.6197          -0.8530         1.369e-09        
                   1.066e-09        1.217e-09         25.0000         
                  1                 
  9.100e-05          2.6204          -0.8442         1.372e-09        
                   1.066e-09        1.219e-09         25.0000         
                  1                 
  9.150e-05          2.6206          -0.8470         1.378e-09        
                   1.063e-09        1.221e-09         25.0000         
                  1                 
  9.200e-05          2.6240          -0.8446         1.382e-09        
                   1.089e-09        1.236e-09         25.0000         
                  1                 
  9.250e-05          2.6197          -0.8531         1.390e-09        
                   1.066e-09        1.228e-09         25.0000         
                  1                 
  9.300e-05          2.6221          -0.8725         1.398e-09        
                   1.085e-09        1.242e-09         25.0000         
                  1                 
  9.350e-05          2.6223          -0.8721         1.402e-09        
                   1.083e-09        1.242e-09         25.0000         
                  1                 
  9.400e-05          2.6234          -0.8476         1.399e-09        
                   1.093e-09        1.246e-09         25.0000         
                  1                 
  9.450e-05          2.6240          -0.8477         1.402e-09        
                   1.090e-09        1.246e-09         25.0000         
                  1                 
  9.500e-05          2.6251          -0.8477         1.404e-09        
                   1.088e-09        1.246e-09         25.0000         
                  1                 
  9.550e-05          2.6197          -0.8507         1.408e-09        
                   1.081e-09        1.244e-09         25.0000         
                  1                 
  9.600e-05          2.6197          -0.8477         1.409e-09        
                   1.079e-09        1.244e-09         25.0000         
                  1                 
  9.650e-05          2.6202          -0.8549         1.412e-09        
                   1.071e-09        1.242e-09         25.0000         
                  1                 
  9.700e-05          2.6191          -0.8480         1.412e-09        
                   1.072e-09        1.242e-09         25.0000         
                  1                 
  9.750e-05          2.6207          -0.8448         1.431e-09        
                   1.040e-09        1.235e-09         25.0000         
                  1                 
  9.800e-05          2.6193          -0.8450         1.434e-09        
                   1.037e-09        1.236e-09         25.0000         
                  1                 
  9.850e-05          2.6193          -0.8448         1.433e-09        
                   1.036e-09        1.234e-09         25.0000         
                  1                 
  9.900e-05          2.6196          -0.8445         1.431e-09        
                   1.036e-09        1.233e-09         25.0000         
                  1                 
  9.950e-05          2.6195          -0.8440         1.428e-09        
                   1.051e-09        1.240e-09         25.0000         
                  1                 
  1.000e-04          2.6263          -0.8476         1.452e-09        
                   1.069e-09        1.261e-09         25.0000         
                  1                 
