 ****** HSPICE -- G-2012.06-SP1 32-BIT (Aug 27 2012) win32 ******               
  Copyright (C) 2012 Synopsys, Inc. All Rights Reserved.                        
  Unpublished-rights reserved under US copyright laws.
  This program is protected by law and is subject to the
  terms and conditions of the license agreement from Synopsys.
  Use of this program is your acceptance to be bound by the
  license agreement. HSPICE is the trademark of Synopsys, Inc.
  Input File: nmos.sp                                                           
  Command line options: -i nmos.sp -o nmos.lis
  lic:  
  lic: FLEXlm: v10.9.8 
  lic: USER:   hmr                  HOSTNAME: BF-201911211153 
  lic: HOSTID: "70c94e3215e4 0c9d922ee649 00ffaabbccdd 005056c00001 005056c00008
  70c94e31fa78 12c94e3
  lic: Using FLEXlm license file: 
  lic: D:\synopsys\Hspice_G-2012.06-SP1\license.dat 
  lic: Checkout 1 hspice 
  lic: License/Maintenance for hspice will expire on 31-dec-2019/2019.12 
  lic: NODE LOCKED license on hostid "70c94e3215e4 0c9d922ee649 00ffaabbccdd 005
 056c00001 005056c0000
  lic:   
 Init: read install configuration file: d:\synopsys\Hspice_G-2012.06-SP1\meta.cfg
 ***************************************************************************
 ***        model parameters  model name:   0:nch.8    model type:nmos   ***
 ***************************************************************************

   *** general parameters ***
    deriv=   0.           

   ***  level 49  model parameters  ***

       hspver=     2000.2               level=         49         
      version=        3.2            paramchk=          1         
       apwarn=          1                lite=          0         
       vgslim=          0             binUnit=          2         
       capMod=          3               xpart=          0         
       mobMod=          1              nqsMod=          0         
       stiMod=          0                 elm=          5         
     sfvtflag=          0                 tox=  4.08e-009 meter   
           xj=   1.5e-007 meter       binflag=          0         
         lmin=   1.2e-006 meter          lmax=2.0001e-005 meter   
         wmin=   1.2e-006 meter          wmax= 0.00010001 meter   
         lref=   1.2e-006 meter          wref=   1.2e-006 meter   
         lint=   1.3e-008 meter          wint=     2e-008 meter   
        lmult=          1               wmult=          1         
           ll=          0                 lln=         -1         
           lw=          0                 lwn=          1         
          lwl=          0                  wl=          0         
          wln=          1                  ww=          0         
          wwn=          1                 wwl=          0         
          dwg=          0 m/V             dwb=          0 m/V^1/2 
           xl=  -1.3e-008                  xw=          0         
           a0=    0.57391                 ags=       0.22 V^-1    
           b0=          0 meter            b1=          0 meter   
         keta=  0.0047187 V^-1           voff=  -0.105143 V       
        ngate=     5e+020 cm^-3           vbx=          0 V       
          vbm=         -3 V                xt=  1.55e-007 meter   
         vth0=   0.404319 V               nch=  4.01e+017 cm^-3   
         nsub=     6e+016 cm^-3           nlx=          0 meter   
       gamma1=          0 V^-1/2       gamma2=          0 V^-1/2  
           k1=   0.584804 V^1/2            k2=      -0.01         
           k3=          0                 k3b=          0 V^-1    
           w0=          0 meter          dvt0=          0         
         dvt1=          0                dvt2=          0 V^-1    
        dvt0w=          0 meter^-1      dvt1w=          0 meter^-1
        dvt2w=          0 V^-1           dsub=          0         
         eta0=     0.0001                etab=8.16163e-008 V^-1    
           u0=  0.0352123 m^2/V/sec         ua=-1.06951e-009 m/V     
           ub=2.50656e-018 (m/V)^2          uc=1.04811e-010 V^-1    
         vsat=    80459.1 m/sec            a1=          0 v^-1    
           a2=       0.99               delta=       0.01 V       
         rdsw=      164.4 ohm-um         prwg=          0 V^-1    
         prwb=          0 V^-1/2           wr=          1         
         pclm=    0.47368             pdiblc1=0.000200258         
      pdiblc2=     1e-005             pdiblcb=          0 V^-1    
       pscbe1=     2e+008 V/m          pscbe2=3.94857e-007 V/m     
        drout=          0                pvag=          0         
      nfactor=          1                cdsc=          0 f/m^2   
        cdscb=          0 f/V/m^2       cdscd=          0 f/V/m^2 
          cit=     0.0008 f/m^2        alpha0=          0 m/V     
        beta0=    11.8162 V               dlc=     6e-009 meter   
          dwc=     3e-009 meter           clc=     1e-007 meter   
          cle=        0.6                cgso=  3.52e-010 f/m     
         cgdo=  3.52e-010 f/m            cgbo=     1e-013 f/m     
         cgsl=          0 f/m            cgdl=          0 f/m     
       ckappa=        0.6                  cf=          0 f/m     
         acde=        0.7 m/V            moin=         15 V^1/2   
         toxm=  4.08e-009 m            dtoxcv=          0 m       
          vfb=         -1 V            alpha1=   0.514232 1/V     
         ijth=        0.1 A              noff=          1         
       voffcv=          0                 tcj=    0.00105 1/K     
        tcjsw=   0.000463 1/K          tcjswg=   0.000463 1/K     
          tpb=    0.00164 V/K           tpbsw=   0.000526 V/K     
       tpbswg=   0.000526 V/K             llc=     -0.048         
          lwc=          0                lwlc=          0         
          wlc=          0                 wwc=          0         
         wwlc=          0                tnom=     298.15 K       
          kt1=  -0.247003 V              kt1l=          0         
          kt2= -0.0277815                 ute=   -1.61824         
          ua1=1.07295e-009 m/V             ub1=-9.93955e-019 (m/V)^2 
          uc1=-3.51884e-011 m/V^2            at=      19122 m/s     
          prt=          0         
          using Berkeley noise model       noiMod=          2         
         noia=  1.73e+020                noib=        871         
         noic=   2.1e-013                  em=   4.2e+007         
           ef=       0.86                  af=          1         
           kf=          0              gdsnoi=-1.23457e-029         
          using Berkeley diodes          using ACM 
          acm=        12                 hdif= 1.77e-007 meter    
         ldif= 1.24e-007 meter             js= 3.23e-007 amp/m^2  
          jsw=  6.7e-013 amp/m            xti=         3          
           nj=         1                   cj=   0.00101 f/m^2    
           mj=     0.349                   pb=    0.6302 V        
         cjsw= 1.94e-010 f/m             mjsw=     0.162          
          php (not used)                  pbsw=       0.6 V        
       cjgate (not used)                 cjswg= 3.51e-010 f/m      
        mjswg=      0.41                pbswg=       0.6 V        
          la0=-4.63626e-007                lags=8.99662e-007         
        lketa=-5.02241e-008               lvoff=-1.4205e-008         
        lvth0=7.26827e-008                 lk1=-1.33831e-008         
        letab=-6.70061e-011                 lu0=1.04079e-008         
          lua=1.53839e-016                 lub=3.88284e-025         
          luc=3.45414e-017               lvsat=-0.00457332         
        lpclm=6.75704e-007            lpdiblc1=8.57903e-010         
      lpscbe2=-4.46819e-013              lbeta0=-3.70955e-008         
         lkt1=5.72263e-009                lkt2=1.94659e-009         
         lute=-3.82962e-008                lua1=-1.06913e-016         
         lub1=2.4817e-025                luc1=-1.68456e-017         
          lat= 0.00874594             lalpha1=-1.5435e-008         
          wa0=-3.31678e-007                wags=-2.12504e-007         
        wketa=-1.05989e-008               wvoff=-1.60318e-008         
        wvth0=1.68168e-008                 wk1=1.27571e-008         
        wetab=-3.94414e-011                 wu0=2.35089e-009         
          wua=5.50925e-016                 wub=-6.62442e-025         
          wuc=-1.31754e-017               wvsat=-0.00457286         
        wpclm=3.46467e-007            wpdiblc1=-8.24487e-011         
       wbeta0=-7.72332e-007                wkt1=-3.21066e-010         
         wkt2=1.97125e-009                wute=3.39448e-008         
         wua1=1.2439e-016                wub1=-5.17512e-025         
         wuc1=-1.04853e-016                 wat=  0.0010185         
      walpha1=-1.88734e-007                 pa0=5.88875e-013         
         pags=-8.91164e-013               pketa=3.84469e-014         
        pvoff=2.76062e-014               pvth0=-3.01943e-014         
          pk1=-4.14093e-015               petab=6.00436e-017         
          pu0=-1.32165e-014                 pua=-9.17045e-022         
          pub=2.95042e-031                 puc=-1.5494e-023         
        pvsat=4.55503e-008               ppclm=-3.87005e-013         
     ppdiblc1=1.08527e-016              pbeta0=5.00363e-013         
         pkt1=-1.38031e-014                pkt2=-3.15746e-015         
         pute=6.72902e-014                pua1=2.95042e-023         
         pub1=1.9842e-031                puc1=7.01371e-023         
          pat=-1.01453e-008             palpha1=1.15774e-013         
 

  

 **warning** the following singular supplies were terminated to 1 meg resistor 
   supply       node1            node2
  vdd                     0:vdd              defined in subckt 0                     0:0                defined in subckt 0               
      
 **info** set option symb=1 internally to help for convergence.
 *****************************************************************
 ******  option summary
 ******
 runlvl  = 3         bypass  = 2         
 ******  
 *sample netlist for gsmc

  ******  dc transfer curves tnom=  25.000 temp=  25.000 *****

   *** source        0:vgs =    0.            ***

x

        volt    voltage      current      current      current    
                     d         mnmos1       mnmos2       mnmos3   
    0.            0.           0.           0.           0.       
  1.0000e-02    1.000e-02    8.303e-12    9.965e-12    1.163e-11  
  2.0000e-02    2.000e-02    1.443e-11    1.732e-11    2.020e-11  
  3.0000e-02    3.000e-02    1.867e-11    2.240e-11    2.613e-11  
  4.0000e-02    4.000e-02    2.141e-11    2.569e-11    2.996e-11  
  5.0000e-02    5.000e-02    2.309e-11    2.770e-11    3.231e-11  
  6.0000e-02    6.000e-02    2.411e-11    2.892e-11    3.373e-11  
  7.0000e-02    7.000e-02    2.473e-11    2.966e-11    3.459e-11  
  8.0000e-02    8.000e-02    2.513e-11    3.014e-11    3.514e-11  
  9.0000e-02    9.000e-02    2.540e-11    3.045e-11    3.550e-11  
    0.10000       0.1000     2.558e-11    3.067e-11    3.576e-11  
    0.11000       0.1100     2.572e-11    3.083e-11    3.594e-11  
    0.12000       0.1200     2.583e-11    3.096e-11    3.608e-11  
    0.13000       0.1300     2.592e-11    3.106e-11    3.620e-11  
    0.14000       0.1400     2.599e-11    3.114e-11    3.629e-11  
    0.15000       0.1500     2.605e-11    3.121e-11    3.637e-11  
    0.16000       0.1600     2.611e-11    3.127e-11    3.644e-11  
    0.17000       0.1700     2.616e-11    3.133e-11    3.650e-11  
    0.18000       0.1800     2.620e-11    3.138e-11    3.656e-11  
    0.19000       0.1900     2.625e-11    3.143e-11    3.661e-11  
    0.20000       0.2000     2.629e-11    3.147e-11    3.666e-11  
    0.21000       0.2100     2.632e-11    3.151e-11    3.670e-11  
    0.22000       0.2200     2.636e-11    3.155e-11    3.675e-11  
    0.23000       0.2300     2.640e-11    3.159e-11    3.679e-11  
    0.24000       0.2400     2.643e-11    3.163e-11    3.683e-11  
    0.25000       0.2500     2.647e-11    3.167e-11    3.687e-11  
    0.26000       0.2600     2.650e-11    3.170e-11    3.691e-11  
    0.27000       0.2700     2.653e-11    3.174e-11    3.695e-11  
    0.28000       0.2800     2.656e-11    3.177e-11    3.698e-11  
    0.29000       0.2900     2.659e-11    3.181e-11    3.702e-11  
    0.30000       0.3000     2.663e-11    3.184e-11    3.705e-11  
    0.31000       0.3100     2.666e-11    3.187e-11    3.709e-11  
    0.32000       0.3200     2.669e-11    3.191e-11    3.712e-11  
    0.33000       0.3300     2.672e-11    3.194e-11    3.716e-11  
    0.34000       0.3400     2.675e-11    3.197e-11    3.719e-11  
    0.35000       0.3500     2.678e-11    3.200e-11    3.723e-11  
    0.36000       0.3600     2.681e-11    3.203e-11    3.726e-11  
    0.37000       0.3700     2.684e-11    3.206e-11    3.729e-11  
    0.38000       0.3800     2.687e-11    3.210e-11    3.733e-11  
    0.39000       0.3900     2.690e-11    3.213e-11    3.736e-11  
    0.40000       0.4000     2.692e-11    3.216e-11    3.739e-11  
    0.41000       0.4100     2.695e-11    3.219e-11    3.743e-11  
    0.42000       0.4200     2.698e-11    3.222e-11    3.746e-11  
    0.43000       0.4300     2.701e-11    3.225e-11    3.749e-11  
    0.44000       0.4400     2.704e-11    3.228e-11    3.752e-11  
    0.45000       0.4500     2.707e-11    3.231e-11    3.756e-11  
    0.46000       0.4600     2.710e-11    3.234e-11    3.759e-11  
    0.47000       0.4700     2.713e-11    3.237e-11    3.762e-11  
    0.48000       0.4800     2.716e-11    3.240e-11    3.765e-11  
    0.49000       0.4900     2.718e-11    3.243e-11    3.769e-11  
    0.50000       0.5000     2.721e-11    3.247e-11    3.772e-11  
    0.51000       0.5100     2.724e-11    3.250e-11    3.775e-11  
    0.52000       0.5200     2.727e-11    3.253e-11    3.778e-11  
    0.53000       0.5300     2.730e-11    3.256e-11    3.781e-11  
    0.54000       0.5400     2.733e-11    3.259e-11    3.785e-11  
    0.55000       0.5500     2.736e-11    3.262e-11    3.788e-11  
    0.56000       0.5600     2.739e-11    3.265e-11    3.791e-11  
    0.57000       0.5700     2.741e-11    3.268e-11    3.794e-11  
    0.58000       0.5800     2.744e-11    3.271e-11    3.797e-11  
    0.59000       0.5900     2.747e-11    3.274e-11    3.800e-11  
    0.60000       0.6000     2.750e-11    3.277e-11    3.804e-11  
    0.61000       0.6100     2.753e-11    3.280e-11    3.807e-11  
    0.62000       0.6200     2.756e-11    3.283e-11    3.810e-11  
    0.63000       0.6300     2.758e-11    3.286e-11    3.813e-11  
    0.64000       0.6400     2.761e-11    3.289e-11    3.816e-11  
    0.65000       0.6500     2.764e-11    3.292e-11    3.820e-11  
    0.66000       0.6600     2.767e-11    3.295e-11    3.823e-11  
    0.67000       0.6700     2.770e-11    3.298e-11    3.826e-11  
    0.68000       0.6800     2.773e-11    3.301e-11    3.829e-11  
    0.69000       0.6900     2.775e-11    3.304e-11    3.832e-11  
    0.70000       0.7000     2.778e-11    3.307e-11    3.835e-11  
    0.71000       0.7100     2.781e-11    3.310e-11    3.839e-11  
    0.72000       0.7200     2.784e-11    3.313e-11    3.842e-11  
    0.73000       0.7300     2.787e-11    3.316e-11    3.845e-11  
    0.74000       0.7400     2.790e-11    3.319e-11    3.848e-11  
    0.75000       0.7500     2.792e-11    3.322e-11    3.851e-11  
    0.76000       0.7600     2.795e-11    3.325e-11    3.854e-11  
    0.77000       0.7700     2.798e-11    3.328e-11    3.858e-11  
    0.78000       0.7800     2.801e-11    3.331e-11    3.861e-11  
    0.79000       0.7900     2.804e-11    3.334e-11    3.864e-11  
    0.80000       0.8000     2.807e-11    3.337e-11    3.867e-11  
    0.81000       0.8100     2.809e-11    3.340e-11    3.870e-11  
    0.82000       0.8200     2.812e-11    3.343e-11    3.873e-11  
    0.83000       0.8300     2.815e-11    3.346e-11    3.876e-11  
    0.84000       0.8400     2.818e-11    3.349e-11    3.880e-11  
    0.85000       0.8500     2.821e-11    3.352e-11    3.883e-11  
    0.86000       0.8600     2.823e-11    3.355e-11    3.886e-11  
    0.87000       0.8700     2.826e-11    3.358e-11    3.889e-11  
    0.88000       0.8800     2.829e-11    3.361e-11    3.892e-11  
    0.89000       0.8900     2.832e-11    3.364e-11    3.895e-11  
    0.90000       0.9000     2.835e-11    3.367e-11    3.899e-11  
    0.91000       0.9100     2.838e-11    3.370e-11    3.902e-11  
    0.92000       0.9200     2.840e-11    3.373e-11    3.905e-11  
    0.93000       0.9300     2.843e-11    3.376e-11    3.908e-11  
    0.94000       0.9400     2.846e-11    3.379e-11    3.911e-11  
    0.95000       0.9500     2.849e-11    3.382e-11    3.914e-11  
    0.96000       0.9600     2.852e-11    3.385e-11    3.918e-11  
    0.97000       0.9700     2.855e-11    3.388e-11    3.921e-11  
    0.98000       0.9800     2.857e-11    3.391e-11    3.924e-11  
    0.99000       0.9900     2.860e-11    3.394e-11    3.927e-11  
    1.00000       1.0000     2.863e-11    3.397e-11    3.930e-11  
    1.01000       1.0100     2.866e-11    3.400e-11    3.933e-11  
    1.02000       1.0200     2.869e-11    3.403e-11    3.936e-11  
    1.03000       1.0300     2.872e-11    3.406e-11    3.940e-11  
    1.04000       1.0400     2.874e-11    3.409e-11    3.943e-11  
    1.05000       1.0500     2.877e-11    3.412e-11    3.946e-11  
    1.06000       1.0600     2.880e-11    3.415e-11    3.949e-11  
    1.07000       1.0700     2.883e-11    3.418e-11    3.952e-11  
    1.08000       1.0800     2.886e-11    3.421e-11    3.955e-11  
    1.09000       1.0900     2.888e-11    3.424e-11    3.959e-11  
    1.10000       1.1000     2.891e-11    3.426e-11    3.962e-11  
    1.11000       1.1100     2.894e-11    3.429e-11    3.965e-11  
    1.12000       1.1200     2.897e-11    3.432e-11    3.968e-11  
    1.13000       1.1300     2.900e-11    3.435e-11    3.971e-11  
    1.14000       1.1400     2.903e-11    3.438e-11    3.974e-11  
    1.15000       1.1500     2.905e-11    3.441e-11    3.978e-11  
    1.16000       1.1600     2.908e-11    3.444e-11    3.981e-11  
    1.17000       1.1700     2.911e-11    3.447e-11    3.984e-11  
    1.18000       1.1800     2.914e-11    3.450e-11    3.987e-11  
    1.19000       1.1900     2.917e-11    3.453e-11    3.990e-11  
    1.20000       1.2000     2.920e-11    3.456e-11    3.993e-11  
    1.21000       1.2100     2.922e-11    3.459e-11    3.997e-11  
    1.22000       1.2200     2.925e-11    3.462e-11    4.000e-11  
    1.23000       1.2300     2.928e-11    3.465e-11    4.003e-11  
    1.24000       1.2400     2.931e-11    3.468e-11    4.006e-11  
    1.25000       1.2500     2.934e-11    3.471e-11    4.009e-11  
    1.26000       1.2600     2.937e-11    3.474e-11    4.012e-11  
    1.27000       1.2700     2.939e-11    3.478e-11    4.016e-11  
    1.28000       1.2800     2.942e-11    3.481e-11    4.019e-11  
    1.29000       1.2900     2.945e-11    3.484e-11    4.022e-11  
    1.30000       1.3000     2.948e-11    3.487e-11    4.025e-11  
    1.31000       1.3100     2.951e-11    3.490e-11    4.028e-11  
    1.32000       1.3200     2.954e-11    3.493e-11    4.031e-11  
    1.33000       1.3300     2.957e-11    3.496e-11    4.035e-11  
    1.34000       1.3400     2.959e-11    3.499e-11    4.038e-11  
    1.35000       1.3500     2.962e-11    3.502e-11    4.041e-11  
    1.36000       1.3600     2.965e-11    3.505e-11    4.044e-11  
    1.37000       1.3700     2.968e-11    3.508e-11    4.047e-11  
    1.38000       1.3800     2.971e-11    3.511e-11    4.051e-11  
    1.39000       1.3900     2.974e-11    3.514e-11    4.054e-11  
    1.40000       1.4000     2.977e-11    3.517e-11    4.057e-11  
    1.41000       1.4100     2.979e-11    3.520e-11    4.060e-11  
    1.42000       1.4200     2.982e-11    3.523e-11    4.064e-11  
    1.43000       1.4300     2.985e-11    3.526e-11    4.067e-11  
    1.44000       1.4400     2.988e-11    3.529e-11    4.070e-11  
    1.45000       1.4500     2.991e-11    3.532e-11    4.073e-11  
    1.46000       1.4600     2.994e-11    3.535e-11    4.076e-11  
    1.47000       1.4700     2.997e-11    3.538e-11    4.080e-11  
    1.48000       1.4800     2.999e-11    3.541e-11    4.083e-11  
    1.49000       1.4900     3.002e-11    3.544e-11    4.086e-11  
    1.50000       1.5000     3.005e-11    3.547e-11    4.089e-11  
    1.51000       1.5100     3.008e-11    3.550e-11    4.093e-11  
    1.52000       1.5200     3.011e-11    3.553e-11    4.096e-11  
    1.53000       1.5300     3.014e-11    3.557e-11    4.099e-11  
    1.54000       1.5400     3.017e-11    3.560e-11    4.102e-11  
    1.55000       1.5500     3.020e-11    3.563e-11    4.106e-11  
    1.56000       1.5600     3.023e-11    3.566e-11    4.109e-11  
    1.57000       1.5700     3.026e-11    3.569e-11    4.112e-11  
    1.58000       1.5800     3.028e-11    3.572e-11    4.115e-11  
    1.59000       1.5900     3.031e-11    3.575e-11    4.119e-11  
    1.60000       1.6000     3.034e-11    3.578e-11    4.122e-11  
    1.61000       1.6100     3.037e-11    3.581e-11    4.125e-11  
    1.62000       1.6200     3.040e-11    3.584e-11    4.129e-11  
    1.63000       1.6300     3.043e-11    3.588e-11    4.132e-11  
    1.64000       1.6400     3.046e-11    3.591e-11    4.135e-11  
    1.65000       1.6500     3.049e-11    3.594e-11    4.139e-11  
    1.66000       1.6600     3.052e-11    3.597e-11    4.142e-11  
    1.67000       1.6700     3.055e-11    3.600e-11    4.145e-11  
    1.68000       1.6800     3.058e-11    3.603e-11    4.149e-11  
    1.69000       1.6900     3.061e-11    3.606e-11    4.152e-11  
    1.70000       1.7000     3.064e-11    3.610e-11    4.155e-11  
    1.71000       1.7100     3.067e-11    3.613e-11    4.159e-11  
    1.72000       1.7200     3.070e-11    3.616e-11    4.162e-11  
    1.73000       1.7300     3.073e-11    3.619e-11    4.165e-11  
    1.74000       1.7400     3.076e-11    3.622e-11    4.169e-11  
    1.75000       1.7500     3.079e-11    3.625e-11    4.172e-11  
    1.76000       1.7600     3.082e-11    3.629e-11    4.176e-11  
    1.77000       1.7700     3.085e-11    3.632e-11    4.179e-11  
    1.78000       1.7800     3.088e-11    3.635e-11    4.182e-11  
    1.79000       1.7900     3.091e-11    3.638e-11    4.186e-11  
    1.80000       1.8000     3.094e-11    3.641e-11    4.189e-11  
    1.81000       1.8100     3.097e-11    3.645e-11    4.193e-11  
    1.82000       1.8200     3.100e-11    3.648e-11    4.196e-11  
    1.83000       1.8300     3.103e-11    3.651e-11    4.200e-11  
    1.84000       1.8400     3.106e-11    3.654e-11    4.203e-11  
    1.85000       1.8500     3.109e-11    3.658e-11    4.206e-11  
    1.86000       1.8600     3.112e-11    3.661e-11    4.210e-11  
    1.87000       1.8700     3.115e-11    3.664e-11    4.213e-11  
    1.88000       1.8800     3.118e-11    3.667e-11    4.217e-11  
    1.89000       1.8900     3.121e-11    3.671e-11    4.220e-11  
    1.90000       1.9000     3.124e-11    3.674e-11    4.224e-11  
    1.91000       1.9100     3.127e-11    3.677e-11    4.227e-11  
    1.92000       1.9200     3.130e-11    3.681e-11    4.231e-11  
    1.93000       1.9300     3.134e-11    3.684e-11    4.235e-11  
    1.94000       1.9400     3.137e-11    3.687e-11    4.238e-11  
    1.95000       1.9500     3.140e-11    3.691e-11    4.242e-11  
    1.96000       1.9600     3.143e-11    3.694e-11    4.245e-11  
    1.97000       1.9700     3.146e-11    3.697e-11    4.249e-11  
    1.98000       1.9800     3.149e-11    3.701e-11    4.252e-11  
    1.99000       1.9900     3.152e-11    3.704e-11    4.256e-11  
    2.00000       2.0000     3.155e-11    3.708e-11    4.260e-11  
    2.01000       2.0100     3.159e-11    3.711e-11    4.263e-11  
    2.02000       2.0200     3.162e-11    3.714e-11    4.267e-11  
    2.03000       2.0300     3.165e-11    3.718e-11    4.271e-11  
    2.04000       2.0400     3.168e-11    3.721e-11    4.274e-11  
    2.05000       2.0500     3.171e-11    3.725e-11    4.278e-11  
    2.06000       2.0600     3.175e-11    3.728e-11    4.282e-11  
    2.07000       2.0700     3.178e-11    3.732e-11    4.285e-11  
    2.08000       2.0800     3.181e-11    3.735e-11    4.289e-11  
    2.09000       2.0900     3.184e-11    3.739e-11    4.293e-11  
    2.10000       2.1000     3.188e-11    3.742e-11    4.297e-11  
    2.11000       2.1100     3.191e-11    3.746e-11    4.300e-11  
    2.12000       2.1200     3.194e-11    3.749e-11    4.304e-11  
    2.13000       2.1300     3.197e-11    3.753e-11    4.308e-11  
    2.14000       2.1400     3.201e-11    3.756e-11    4.312e-11  
    2.15000       2.1500     3.204e-11    3.760e-11    4.316e-11  
    2.16000       2.1600     3.207e-11    3.763e-11    4.319e-11  
    2.17000       2.1700     3.211e-11    3.767e-11    4.323e-11  
    2.18000       2.1800     3.214e-11    3.771e-11    4.327e-11  
    2.19000       2.1900     3.217e-11    3.774e-11    4.331e-11  
    2.20000       2.2000     3.221e-11    3.778e-11    4.335e-11  
    2.21000       2.2100     3.224e-11    3.781e-11    4.339e-11  
    2.22000       2.2200     3.227e-11    3.785e-11    4.343e-11  
    2.23000       2.2300     3.231e-11    3.789e-11    4.347e-11  
    2.24000       2.2400     3.234e-11    3.792e-11    4.351e-11  
    2.25000       2.2500     3.237e-11    3.796e-11    4.355e-11  
    2.26000       2.2600     3.241e-11    3.800e-11    4.359e-11  
    2.27000       2.2700     3.244e-11    3.803e-11    4.363e-11  
    2.28000       2.2800     3.248e-11    3.807e-11    4.367e-11  
    2.29000       2.2900     3.251e-11    3.811e-11    4.371e-11  
    2.30000       2.3000     3.255e-11    3.815e-11    4.375e-11  
    2.31000       2.3100     3.258e-11    3.818e-11    4.379e-11  
    2.32000       2.3200     3.262e-11    3.822e-11    4.383e-11  
    2.33000       2.3300     3.265e-11    3.826e-11    4.387e-11  
    2.34000       2.3400     3.269e-11    3.830e-11    4.391e-11  
    2.35000       2.3500     3.272e-11    3.834e-11    4.395e-11  
    2.36000       2.3600     3.276e-11    3.838e-11    4.399e-11  
    2.37000       2.3700     3.279e-11    3.841e-11    4.404e-11  
    2.38000       2.3800     3.283e-11    3.845e-11    4.408e-11  
    2.39000       2.3900     3.286e-11    3.849e-11    4.412e-11  
    2.40000       2.4000     3.290e-11    3.853e-11    4.416e-11  
    2.41000       2.4100     3.294e-11    3.857e-11    4.420e-11  
    2.42000       2.4200     3.297e-11    3.861e-11    4.425e-11  
    2.43000       2.4300     3.301e-11    3.865e-11    4.429e-11  
    2.44000       2.4400     3.304e-11    3.869e-11    4.433e-11  
    2.45000       2.4500     3.308e-11    3.873e-11    4.437e-11  
    2.46000       2.4600     3.312e-11    3.877e-11    4.442e-11  
    2.47000       2.4700     3.315e-11    3.881e-11    4.446e-11  
    2.48000       2.4800     3.319e-11    3.885e-11    4.451e-11  
    2.49000       2.4900     3.323e-11    3.889e-11    4.455e-11  
    2.50000       2.5000     3.327e-11    3.893e-11    4.459e-11  
    2.51000       2.5100     3.330e-11    3.897e-11    4.464e-11  
    2.52000       2.5200     3.334e-11    3.901e-11    4.468e-11  
    2.53000       2.5300     3.338e-11    3.905e-11    4.473e-11  
    2.54000       2.5400     3.342e-11    3.909e-11    4.477e-11  
    2.55000       2.5500     3.345e-11    3.913e-11    4.482e-11  
    2.56000       2.5600     3.349e-11    3.918e-11    4.486e-11  
    2.57000       2.5700     3.353e-11    3.922e-11    4.491e-11  
    2.58000       2.5800     3.357e-11    3.926e-11    4.495e-11  
    2.59000       2.5900     3.361e-11    3.930e-11    4.500e-11  
    2.60000       2.6000     3.364e-11    3.934e-11    4.504e-11  
    2.61000       2.6100     3.368e-11    3.939e-11    4.509e-11  
    2.62000       2.6200     3.372e-11    3.943e-11    4.514e-11  
    2.63000       2.6300     3.376e-11    3.947e-11    4.518e-11  
    2.64000       2.6400     3.380e-11    3.952e-11    4.523e-11  
    2.65000       2.6500     3.384e-11    3.956e-11    4.528e-11  
    2.66000       2.6600     3.388e-11    3.960e-11    4.533e-11  
    2.67000       2.6700     3.392e-11    3.965e-11    4.537e-11  
    2.68000       2.6800     3.396e-11    3.969e-11    4.542e-11  
    2.69000       2.6900     3.400e-11    3.973e-11    4.547e-11  
    2.70000       2.7000     3.404e-11    3.978e-11    4.552e-11  
    2.71000       2.7100     3.408e-11    3.982e-11    4.556e-11  
    2.72000       2.7200     3.412e-11    3.987e-11    4.561e-11  
    2.73000       2.7300     3.416e-11    3.991e-11    4.566e-11  
    2.74000       2.7400     3.420e-11    3.996e-11    4.571e-11  
    2.75000       2.7500     3.424e-11    4.000e-11    4.576e-11  
    2.76000       2.7600     3.428e-11    4.005e-11    4.581e-11  
    2.77000       2.7700     3.432e-11    4.009e-11    4.586e-11  
    2.78000       2.7800     3.436e-11    4.014e-11    4.591e-11  
    2.79000       2.7900     3.441e-11    4.018e-11    4.596e-11  
    2.80000       2.8000     3.445e-11    4.023e-11    4.601e-11  
    2.81000       2.8100     3.449e-11    4.028e-11    4.606e-11  
    2.82000       2.8200     3.453e-11    4.032e-11    4.611e-11  
    2.83000       2.8300     3.457e-11    4.037e-11    4.616e-11  
    2.84000       2.8400     3.462e-11    4.042e-11    4.621e-11  
    2.85000       2.8500     3.466e-11    4.046e-11    4.627e-11  
    2.86000       2.8600     3.470e-11    4.051e-11    4.632e-11  
    2.87000       2.8700     3.474e-11    4.056e-11    4.637e-11  
    2.88000       2.8800     3.479e-11    4.060e-11    4.642e-11  
    2.89000       2.8900     3.483e-11    4.065e-11    4.647e-11  
    2.90000       2.9000     3.487e-11    4.070e-11    4.653e-11  
    2.91000       2.9100     3.492e-11    4.075e-11    4.658e-11  
    2.92000       2.9200     3.496e-11    4.080e-11    4.663e-11  
    2.93000       2.9300     3.501e-11    4.085e-11    4.669e-11  
    2.94000       2.9400     3.505e-11    4.089e-11    4.674e-11  
    2.95000       2.9500     3.509e-11    4.094e-11    4.679e-11  
    2.96000       2.9600     3.514e-11    4.099e-11    4.685e-11  
    2.97000       2.9700     3.518e-11    4.104e-11    4.690e-11  
    2.98000       2.9800     3.523e-11    4.109e-11    4.696e-11  
    2.99000       2.9900     3.527e-11    4.114e-11    4.701e-11  
    3.00000       3.0000     3.532e-11    4.119e-11    4.707e-11  
    3.01000       3.0100     3.536e-11    4.124e-11    4.712e-11  
    3.02000       3.0200     3.541e-11    4.129e-11    4.718e-11  
    3.03000       3.0300     3.545e-11    4.134e-11    4.724e-11  
    3.04000       3.0400     3.550e-11    4.140e-11    4.729e-11  
    3.05000       3.0500     3.555e-11    4.145e-11    4.735e-11  
    3.06000       3.0600     3.559e-11    4.150e-11    4.740e-11  
    3.07000       3.0700     3.564e-11    4.155e-11    4.746e-11  
    3.08000       3.0800     3.568e-11    4.160e-11    4.752e-11  
    3.09000       3.0900     3.573e-11    4.165e-11    4.758e-11  
    3.10000       3.1000     3.578e-11    4.171e-11    4.763e-11  
    3.11000       3.1100     3.582e-11    4.176e-11    4.769e-11  
    3.12000       3.1200     3.587e-11    4.181e-11    4.775e-11  
    3.13000       3.1300     3.592e-11    4.186e-11    4.781e-11  
    3.14000       3.1400     3.597e-11    4.192e-11    4.787e-11  
    3.15000       3.1500     3.602e-11    4.197e-11    4.793e-11  
    3.16000       3.1600     3.606e-11    4.202e-11    4.799e-11  
    3.17000       3.1700     3.611e-11    4.208e-11    4.805e-11  
    3.18000       3.1800     3.616e-11    4.213e-11    4.811e-11  
    3.19000       3.1900     3.621e-11    4.219e-11    4.817e-11  
    3.20000       3.2000     3.626e-11    4.224e-11    4.823e-11  
    3.21000       3.2100     3.631e-11    4.230e-11    4.829e-11  
    3.22000       3.2200     3.636e-11    4.235e-11    4.835e-11  
    3.23000       3.2300     3.640e-11    4.241e-11    4.841e-11  
    3.24000       3.2400     3.645e-11    4.246e-11    4.847e-11  
    3.25000       3.2500     3.650e-11    4.252e-11    4.853e-11  
    3.26000       3.2600     3.655e-11    4.257e-11    4.859e-11  
    3.27000       3.2700     3.660e-11    4.263e-11    4.866e-11  
    3.28000       3.2800     3.665e-11    4.269e-11    4.872e-11  
    3.29000       3.2900     3.670e-11    4.274e-11    4.878e-11  
    3.30000       3.3000     3.676e-11    4.280e-11    4.884e-11  
    3.31000       3.3100     3.681e-11    4.286e-11    4.891e-11  
    3.32000       3.3200     3.686e-11    4.291e-11    4.897e-11  
    3.33000       3.3300     3.691e-11    4.297e-11    4.903e-11  
    3.34000       3.3400     3.696e-11    4.303e-11    4.910e-11  
    3.35000       3.3500     3.701e-11    4.309e-11    4.916e-11  
    3.36000       3.3600     3.706e-11    4.315e-11    4.923e-11  
    3.37000       3.3700     3.712e-11    4.320e-11    4.929e-11  
    3.38000       3.3800     3.717e-11    4.326e-11    4.936e-11  
    3.39000       3.3900     3.722e-11    4.332e-11    4.942e-11  
    3.40000       3.4000     3.727e-11    4.338e-11    4.949e-11  
    3.41000       3.4100     3.733e-11    4.344e-11    4.955e-11  
    3.42000       3.4200     3.738e-11    4.350e-11    4.962e-11  
    3.43000       3.4300     3.743e-11    4.356e-11    4.969e-11  
    3.44000       3.4400     3.748e-11    4.362e-11    4.975e-11  
    3.45000       3.4500     3.754e-11    4.368e-11    4.982e-11  
    3.46000       3.4600     3.759e-11    4.374e-11    4.989e-11  
    3.47000       3.4700     3.765e-11    4.380e-11    4.996e-11  
    3.48000       3.4800     3.770e-11    4.386e-11    5.002e-11  
    3.49000       3.4900     3.775e-11    4.392e-11    5.009e-11  
    3.50000       3.5000     3.781e-11    4.399e-11    5.016e-11  
    3.51000       3.5100     3.786e-11    4.405e-11    5.023e-11  
    3.52000       3.5200     3.792e-11    4.411e-11    5.030e-11  
    3.53000       3.5300     3.797e-11    4.417e-11    5.037e-11  
    3.54000       3.5400     3.803e-11    4.423e-11    5.044e-11  
    3.55000       3.5500     3.809e-11    4.430e-11    5.051e-11  
    3.56000       3.5600     3.814e-11    4.436e-11    5.058e-11  
    3.57000       3.5700     3.820e-11    4.442e-11    5.065e-11  
    3.58000       3.5800     3.825e-11    4.449e-11    5.072e-11  
    3.59000       3.5900     3.831e-11    4.455e-11    5.079e-11  
    3.60000       3.6000     3.837e-11    4.461e-11    5.086e-11  
    3.61000       3.6100     3.842e-11    4.468e-11    5.093e-11  
    3.62000       3.6200     3.848e-11    4.474e-11    5.101e-11  
    3.63000       3.6300     3.854e-11    4.481e-11    5.108e-11  
    3.64000       3.6400     3.860e-11    4.487e-11    5.115e-11  
    3.65000       3.6500     3.865e-11    4.494e-11    5.122e-11  
    3.66000       3.6600     3.871e-11    4.500e-11    5.130e-11  
    3.67000       3.6700     3.877e-11    4.507e-11    5.137e-11  
    3.68000       3.6800     3.883e-11    4.514e-11    5.144e-11  
    3.69000       3.6900     3.889e-11    4.520e-11    5.152e-11  
    3.70000       3.7000     3.894e-11    4.527e-11    5.159e-11  
    3.71000       3.7100     3.900e-11    4.533e-11    5.167e-11  
    3.72000       3.7200     3.906e-11    4.540e-11    5.174e-11  
    3.73000       3.7300     3.912e-11    4.547e-11    5.182e-11  
    3.74000       3.7400     3.918e-11    4.554e-11    5.189e-11  
    3.75000       3.7500     3.924e-11    4.560e-11    5.197e-11  
    3.76000       3.7600     3.930e-11    4.567e-11    5.204e-11  
    3.77000       3.7700     3.936e-11    4.574e-11    5.212e-11  
    3.78000       3.7800     3.942e-11    4.581e-11    5.220e-11  
    3.79000       3.7900     3.948e-11    4.588e-11    5.227e-11  
    3.80000       3.8000     3.954e-11    4.595e-11    5.235e-11  
    3.81000       3.8100     3.960e-11    4.602e-11    5.243e-11  
    3.82000       3.8200     3.966e-11    4.609e-11    5.251e-11  
    3.83000       3.8300     3.973e-11    4.615e-11    5.258e-11  
    3.84000       3.8400     3.979e-11    4.622e-11    5.266e-11  
    3.85000       3.8500     3.985e-11    4.629e-11    5.274e-11  
    3.86000       3.8600     3.991e-11    4.637e-11    5.282e-11  
    3.87000       3.8700     3.997e-11    4.644e-11    5.290e-11  
    3.88000       3.8800     4.004e-11    4.651e-11    5.298e-11  
    3.89000       3.8900     4.010e-11    4.658e-11    5.306e-11  
    3.90000       3.9000     4.016e-11    4.665e-11    5.314e-11  
    3.91000       3.9100     4.022e-11    4.672e-11    5.322e-11  
    3.92000       3.9200     4.029e-11    4.679e-11    5.330e-11  
    3.93000       3.9300     4.035e-11    4.687e-11    5.338e-11  
    3.94000       3.9400     4.041e-11    4.694e-11    5.346e-11  
    3.95000       3.9500     4.048e-11    4.701e-11    5.354e-11  
    3.96000       3.9600     4.054e-11    4.708e-11    5.363e-11  
    3.97000       3.9700     4.061e-11    4.716e-11    5.371e-11  
    3.98000       3.9800     4.067e-11    4.723e-11    5.379e-11  
    3.99000       3.9900     4.074e-11    4.730e-11    5.387e-11  
    4.00000       4.0000     4.080e-11    4.738e-11    5.396e-11  
    4.01000       4.0100     4.087e-11    4.745e-11    5.404e-11  
    4.02000       4.0200     4.093e-11    4.753e-11    5.412e-11  
    4.03000       4.0300     4.100e-11    4.760e-11    5.421e-11  
    4.04000       4.0400     4.106e-11    4.768e-11    5.429e-11  
    4.05000       4.0500     4.113e-11    4.775e-11    5.438e-11  
    4.06000       4.0600     4.120e-11    4.783e-11    5.446e-11  
    4.07000       4.0700     4.126e-11    4.790e-11    5.455e-11  
    4.08000       4.0800     4.133e-11    4.798e-11    5.463e-11  
    4.09000       4.0900     4.140e-11    4.806e-11    5.472e-11  
    4.10000       4.1000     4.146e-11    4.813e-11    5.480e-11  
    4.11000       4.1100     4.153e-11    4.821e-11    5.489e-11  
    4.12000       4.1200     4.160e-11    4.829e-11    5.498e-11  
    4.13000       4.1300     4.167e-11    4.836e-11    5.506e-11  
    4.14000       4.1400     4.173e-11    4.844e-11    5.515e-11  
    4.15000       4.1500     4.180e-11    4.852e-11    5.524e-11  
    4.16000       4.1600     4.187e-11    4.860e-11    5.533e-11  
    4.17000       4.1700     4.194e-11    4.868e-11    5.541e-11  
    4.18000       4.1800     4.201e-11    4.875e-11    5.550e-11  
    4.19000       4.1900     4.208e-11    4.883e-11    5.559e-11  
    4.20000       4.2000     4.214e-11    4.891e-11    5.568e-11  
    4.21000       4.2100     4.221e-11    4.899e-11    5.577e-11  
    4.22000       4.2200     4.228e-11    4.907e-11    5.586e-11  
    4.23000       4.2300     4.235e-11    4.915e-11    5.595e-11  
    4.24000       4.2400     4.242e-11    4.923e-11    5.604e-11  
    4.25000       4.2500     4.249e-11    4.931e-11    5.613e-11  
    4.26000       4.2600     4.256e-11    4.939e-11    5.622e-11  
    4.27000       4.2700     4.264e-11    4.947e-11    5.631e-11  
    4.28000       4.2800     4.271e-11    4.955e-11    5.640e-11  
    4.29000       4.2900     4.278e-11    4.964e-11    5.649e-11  
    4.30000       4.3000     4.285e-11    4.972e-11    5.659e-11  
    4.31000       4.3100     4.292e-11    4.980e-11    5.668e-11  
    4.32000       4.3200     4.299e-11    4.988e-11    5.677e-11  
    4.33000       4.3300     4.306e-11    4.996e-11    5.686e-11  
    4.34000       4.3400     4.314e-11    5.005e-11    5.696e-11  
    4.35000       4.3500     4.321e-11    5.013e-11    5.705e-11  
    4.36000       4.3600     4.328e-11    5.021e-11    5.714e-11  
    4.37000       4.3700     4.335e-11    5.030e-11    5.724e-11  
    4.38000       4.3800     4.343e-11    5.038e-11    5.733e-11  
    4.39000       4.3900     4.350e-11    5.046e-11    5.743e-11  
    4.40000       4.4000     4.357e-11    5.055e-11    5.752e-11  
    4.41000       4.4100     4.365e-11    5.063e-11    5.762e-11  
    4.42000       4.4200     4.372e-11    5.072e-11    5.771e-11  
    4.43000       4.4300     4.380e-11    5.080e-11    5.781e-11  
    4.44000       4.4400     4.387e-11    5.089e-11    5.791e-11  
    4.45000       4.4500     4.394e-11    5.097e-11    5.800e-11  
    4.46000       4.4600     4.402e-11    5.106e-11    5.810e-11  
    4.47000       4.4700     4.409e-11    5.115e-11    5.820e-11  
    4.48000       4.4800     4.417e-11    5.123e-11    5.829e-11  
    4.49000       4.4900     4.424e-11    5.132e-11    5.839e-11  
    4.50000       4.5000     4.432e-11    5.141e-11    5.849e-11  
    4.51000       4.5100     4.440e-11    5.149e-11    5.859e-11  
    4.52000       4.5200     4.447e-11    5.158e-11    5.869e-11  
    4.53000       4.5300     4.455e-11    5.167e-11    5.879e-11  
    4.54000       4.5400     4.462e-11    5.175e-11    5.889e-11  
    4.55000       4.5500     4.470e-11    5.184e-11    5.898e-11  
    4.56000       4.5600     4.478e-11    5.193e-11    5.908e-11  
    4.57000       4.5700     4.486e-11    5.202e-11    5.918e-11  
    4.58000       4.5800     4.493e-11    5.211e-11    5.928e-11  
    4.59000       4.5900     4.501e-11    5.220e-11    5.939e-11  
    4.60000       4.6000     4.509e-11    5.229e-11    5.949e-11  
    4.61000       4.6100     4.517e-11    5.238e-11    5.959e-11  
    4.62000       4.6200     4.524e-11    5.247e-11    5.969e-11  
    4.63000       4.6300     4.532e-11    5.256e-11    5.979e-11  
    4.64000       4.6400     4.540e-11    5.265e-11    5.989e-11  
    4.65000       4.6500     4.548e-11    5.274e-11    6.000e-11  
    4.66000       4.6600     4.556e-11    5.283e-11    6.010e-11  
    4.67000       4.6700     4.564e-11    5.292e-11    6.020e-11  
    4.68000       4.6800     4.572e-11    5.301e-11    6.031e-11  
    4.69000       4.6900     4.580e-11    5.310e-11    6.041e-11  
    4.70000       4.7000     4.588e-11    5.320e-11    6.051e-11  
    4.71000       4.7100     4.596e-11    5.329e-11    6.062e-11  
    4.72000       4.7200     4.604e-11    5.338e-11    6.072e-11  
    4.73000       4.7300     4.612e-11    5.347e-11    6.083e-11  
    4.74000       4.7400     4.620e-11    5.357e-11    6.093e-11  
    4.75000       4.7500     4.628e-11    5.366e-11    6.104e-11  
    4.76000       4.7600     4.636e-11    5.375e-11    6.114e-11  
    4.77000       4.7700     4.644e-11    5.385e-11    6.125e-11  
    4.78000       4.7800     4.652e-11    5.394e-11    6.136e-11  
    4.79000       4.7900     4.661e-11    5.403e-11    6.146e-11  
    4.80000       4.8000     4.669e-11    5.413e-11    6.157e-11  
    4.81000       4.8100     4.677e-11    5.422e-11    6.168e-11  
    4.82000       4.8200     4.685e-11    5.432e-11    6.179e-11  
    4.83000       4.8300     4.694e-11    5.441e-11    6.189e-11  
    4.84000       4.8400     4.702e-11    5.451e-11    6.200e-11  
    4.85000       4.8500     4.710e-11    5.461e-11    6.211e-11  
    4.86000       4.8600     4.718e-11    5.470e-11    6.222e-11  
    4.87000       4.8700     4.727e-11    5.480e-11    6.233e-11  
    4.88000       4.8800     4.735e-11    5.489e-11    6.244e-11  
    4.89000       4.8900     4.744e-11    5.499e-11    6.255e-11  
    4.90000       4.9000     4.752e-11    5.509e-11    6.266e-11  
    4.91000       4.9100     4.760e-11    5.519e-11    6.277e-11  
    4.92000       4.9200     4.769e-11    5.528e-11    6.288e-11  
    4.93000       4.9300     4.777e-11    5.538e-11    6.299e-11  
    4.94000       4.9400     4.786e-11    5.548e-11    6.310e-11  
    4.95000       4.9500     4.794e-11    5.558e-11    6.321e-11  
    4.96000       4.9600     4.803e-11    5.568e-11    6.332e-11  
    4.97000       4.9700     4.811e-11    5.578e-11    6.344e-11  
    4.98000       4.9800     4.820e-11    5.587e-11    6.355e-11  
    4.99000       4.9900     4.829e-11    5.597e-11    6.366e-11  
    5.00000       5.0000     4.837e-11    5.607e-11    6.377e-11  
    5.01000       5.0100     4.846e-11    5.617e-11    6.389e-11  
    5.02000       5.0200     4.855e-11    5.627e-11    6.400e-11  
    5.03000       5.0300     4.863e-11    5.637e-11    6.411e-11  
    5.04000       5.0400     4.872e-11    5.647e-11    6.423e-11  
    5.05000       5.0500     4.881e-11    5.658e-11    6.434e-11  
    5.06000       5.0600     4.889e-11    5.668e-11    6.446e-11  
    5.07000       5.0700     4.898e-11    5.678e-11    6.457e-11  
    5.08000       5.0800     4.907e-11    5.688e-11    6.469e-11  
    5.09000       5.0900     4.916e-11    5.698e-11    6.480e-11  
    5.10000       5.1000     4.925e-11    5.708e-11    6.492e-11  
    5.11000       5.1100     4.934e-11    5.719e-11    6.504e-11  
    5.12000       5.1200     4.942e-11    5.729e-11    6.515e-11  
    5.13000       5.1300     4.951e-11    5.739e-11    6.527e-11  
    5.14000       5.1400     4.960e-11    5.749e-11    6.539e-11  
    5.15000       5.1500     4.969e-11    5.760e-11    6.550e-11  
    5.16000       5.1600     4.978e-11    5.770e-11    6.562e-11  
    5.17000       5.1700     4.987e-11    5.781e-11    6.574e-11  
    5.18000       5.1800     4.996e-11    5.791e-11    6.586e-11  
    5.19000       5.1900     5.005e-11    5.801e-11    6.598e-11  
    5.20000       5.2000     5.014e-11    5.812e-11    6.610e-11  
    5.21000       5.2100     5.023e-11    5.822e-11    6.621e-11  
    5.22000       5.2200     5.032e-11    5.833e-11    6.633e-11  
    5.23000       5.2300     5.041e-11    5.843e-11    6.645e-11  
    5.24000       5.2400     5.051e-11    5.854e-11    6.657e-11  
    5.25000       5.2500     5.060e-11    5.865e-11    6.669e-11  
    5.26000       5.2600     5.069e-11    5.875e-11    6.682e-11  
    5.27000       5.2700     5.078e-11    5.886e-11    6.694e-11  
    5.28000       5.2800     5.087e-11    5.897e-11    6.706e-11  
    5.29000       5.2900     5.097e-11    5.907e-11    6.718e-11  
    5.30000       5.3000     5.106e-11    5.918e-11    6.730e-11  
    5.31000       5.3100     5.115e-11    5.929e-11    6.742e-11  
    5.32000       5.3200     5.124e-11    5.939e-11    6.755e-11  
    5.33000       5.3300     5.134e-11    5.950e-11    6.767e-11  
    5.34000       5.3400     5.143e-11    5.961e-11    6.779e-11  
    5.35000       5.3500     5.152e-11    5.972e-11    6.791e-11  
    5.36000       5.3600     5.162e-11    5.983e-11    6.804e-11  
    5.37000       5.3700     5.171e-11    5.994e-11    6.816e-11  
    5.38000       5.3800     5.181e-11    6.005e-11    6.829e-11  
    5.39000       5.3900     5.190e-11    6.016e-11    6.841e-11  
    5.40000       5.4000     5.200e-11    6.027e-11    6.854e-11  
    5.41000       5.4100     5.209e-11    6.038e-11    6.866e-11  
    5.42000       5.4200     5.219e-11    6.049e-11    6.879e-11  
    5.43000       5.4300     5.228e-11    6.060e-11    6.891e-11  
    5.44000       5.4400     5.238e-11    6.071e-11    6.904e-11  
    5.45000       5.4500     5.247e-11    6.082e-11    6.916e-11  
    5.46000       5.4600     5.257e-11    6.093e-11    6.929e-11  
    5.47000       5.4700     5.266e-11    6.104e-11    6.942e-11  
    5.48000       5.4800     5.276e-11    6.115e-11    6.954e-11  
    5.49000       5.4900     5.286e-11    6.126e-11    6.967e-11  
    5.50000       5.5000     5.295e-11    6.138e-11    6.980e-11  
    5.51000       5.5100     5.305e-11    6.149e-11    6.993e-11  
    5.52000       5.5200     5.315e-11    6.160e-11    7.005e-11  
    5.53000       5.5300     5.324e-11    6.171e-11    7.018e-11  
    5.54000       5.5400     5.334e-11    6.183e-11    7.031e-11  
    5.55000       5.5500     5.344e-11    6.194e-11    7.044e-11  
    5.56000       5.5600     5.354e-11    6.205e-11    7.057e-11  
    5.57000       5.5700     5.364e-11    6.217e-11    7.070e-11  
    5.58000       5.5800     5.373e-11    6.228e-11    7.083e-11  
    5.59000       5.5900     5.383e-11    6.240e-11    7.096e-11  
    5.60000       5.6000     5.393e-11    6.251e-11    7.109e-11  
    5.61000       5.6100     5.403e-11    6.263e-11    7.122e-11  
    5.62000       5.6200     5.413e-11    6.274e-11    7.135e-11  
    5.63000       5.6300     5.423e-11    6.286e-11    7.148e-11  
    5.64000       5.6400     5.433e-11    6.297e-11    7.162e-11  
    5.65000       5.6500     5.443e-11    6.309e-11    7.175e-11  
    5.66000       5.6600     5.453e-11    6.320e-11    7.188e-11  
    5.67000       5.6700     5.463e-11    6.332e-11    7.201e-11  
    5.68000       5.6800     5.473e-11    6.344e-11    7.215e-11  
    5.69000       5.6900     5.483e-11    6.355e-11    7.228e-11  
    5.70000       5.7000     5.493e-11    6.367e-11    7.241e-11  
    5.71000       5.7100     5.503e-11    6.379e-11    7.255e-11  
    5.72000       5.7200     5.513e-11    6.391e-11    7.268e-11  
    5.73000       5.7300     5.523e-11    6.402e-11    7.281e-11  
    5.74000       5.7400     5.534e-11    6.414e-11    7.295e-11  
    5.75000       5.7500     5.544e-11    6.426e-11    7.308e-11  
    5.76000       5.7600     5.554e-11    6.438e-11    7.322e-11  
    5.77000       5.7700     5.564e-11    6.450e-11    7.335e-11  
    5.78000       5.7800     5.574e-11    6.462e-11    7.349e-11  
    5.79000       5.7900     5.585e-11    6.474e-11    7.363e-11  
    5.80000       5.8000     5.595e-11    6.486e-11    7.376e-11  
    5.81000       5.8100     5.605e-11    6.498e-11    7.390e-11  
    5.82000       5.8200     5.616e-11    6.510e-11    7.404e-11  
    5.83000       5.8300     5.626e-11    6.522e-11    7.417e-11  
    5.84000       5.8400     5.636e-11    6.534e-11    7.431e-11  
    5.85000       5.8500     5.647e-11    6.546e-11    7.445e-11  
    5.86000       5.8600     5.657e-11    6.558e-11    7.459e-11  
    5.87000       5.8700     5.667e-11    6.570e-11    7.472e-11  
    5.88000       5.8800     5.678e-11    6.582e-11    7.486e-11  
    5.89000       5.8900     5.688e-11    6.594e-11    7.500e-11  
    5.90000       5.9000     5.699e-11    6.606e-11    7.514e-11  
    5.91000       5.9100     5.709e-11    6.619e-11    7.528e-11  
    5.92000       5.9200     5.720e-11    6.631e-11    7.542e-11  
    5.93000       5.9300     5.730e-11    6.643e-11    7.556e-11  
    5.94000       5.9400     5.741e-11    6.656e-11    7.570e-11  
    5.95000       5.9500     5.752e-11    6.668e-11    7.584e-11  
    5.96000       5.9600     5.762e-11    6.680e-11    7.598e-11  
    5.97000       5.9700     5.773e-11    6.693e-11    7.612e-11  
    5.98000       5.9800     5.783e-11    6.705e-11    7.626e-11  
    5.99000       5.9900     5.794e-11    6.717e-11    7.641e-11  
    6.00000       6.0000     5.805e-11    6.730e-11    7.655e-11  
    6.01000       6.0100     5.816e-11    6.742e-11    7.669e-11  
    6.02000       6.0200     5.826e-11    6.755e-11    7.683e-11  
    6.03000       6.0300     5.837e-11    6.767e-11    7.697e-11  
    6.04000       6.0400     5.848e-11    6.780e-11    7.712e-11  
    6.05000       6.0500     5.859e-11    6.792e-11    7.726e-11  
    6.06000       6.0600     5.869e-11    6.805e-11    7.740e-11  
    6.07000       6.0700     5.880e-11    6.818e-11    7.755e-11  
    6.08000       6.0800     5.891e-11    6.830e-11    7.769e-11  
    6.09000       6.0900     5.902e-11    6.843e-11    7.784e-11  
    6.10000       6.1000     5.913e-11    6.855e-11    7.798e-11  
    6.11000       6.1100     5.924e-11    6.868e-11    7.813e-11  
    6.12000       6.1200     5.935e-11    6.881e-11    7.827e-11  
    6.13000       6.1300     5.946e-11    6.894e-11    7.842e-11  
    6.14000       6.1400     5.957e-11    6.906e-11    7.856e-11  
    6.15000       6.1500     5.967e-11    6.919e-11    7.871e-11  
    6.16000       6.1600     5.978e-11    6.932e-11    7.886e-11  
    6.17000       6.1700     5.990e-11    6.945e-11    7.900e-11  
    6.18000       6.1800     6.001e-11    6.958e-11    7.915e-11  
    6.19000       6.1900     6.012e-11    6.971e-11    7.930e-11  
    6.20000       6.2000     6.023e-11    6.984e-11    7.944e-11  
    6.21000       6.2100     6.034e-11    6.996e-11    7.959e-11  
    6.22000       6.2200     6.045e-11    7.009e-11    7.974e-11  
    6.23000       6.2300     6.056e-11    7.022e-11    7.989e-11  
    6.24000       6.2400     6.067e-11    7.035e-11    8.004e-11  
    6.25000       6.2500     6.078e-11    7.048e-11    8.019e-11  
    6.26000       6.2600     6.090e-11    7.062e-11    8.033e-11  
    6.27000       6.2700     6.101e-11    7.075e-11    8.048e-11  
    6.28000       6.2800     6.112e-11    7.088e-11    8.063e-11  
    6.29000       6.2900     6.123e-11    7.101e-11    8.078e-11  
    6.30000       6.3000     6.135e-11    7.114e-11    8.093e-11  
    6.31000       6.3100     6.146e-11    7.127e-11    8.108e-11  
    6.32000       6.3200     6.157e-11    7.140e-11    8.124e-11  
    6.33000       6.3300     6.169e-11    7.154e-11    8.139e-11  
    6.34000       6.3400     6.180e-11    7.167e-11    8.154e-11  
    6.35000       6.3500     6.191e-11    7.180e-11    8.169e-11  
    6.36000       6.3600     6.203e-11    7.193e-11    8.184e-11  
    6.37000       6.3700     6.214e-11    7.207e-11    8.199e-11  
    6.38000       6.3800     6.226e-11    7.220e-11    8.215e-11  
    6.39000       6.3900     6.237e-11    7.233e-11    8.230e-11  
    6.40000       6.4000     6.248e-11    7.247e-11    8.245e-11  
    6.41000       6.4100     6.260e-11    7.260e-11    8.260e-11  
    6.42000       6.4200     6.271e-11    7.274e-11    8.276e-11  
    6.43000       6.4300     6.283e-11    7.287e-11    8.291e-11  
    6.44000       6.4400     6.295e-11    7.301e-11    8.307e-11  
    6.45000       6.4500     6.306e-11    7.314e-11    8.322e-11  
    6.46000       6.4600     6.318e-11    7.328e-11    8.337e-11  
    6.47000       6.4700     6.329e-11    7.341e-11    8.353e-11  
    6.48000       6.4800     6.341e-11    7.355e-11    8.368e-11  
    6.49000       6.4900     6.353e-11    7.368e-11    8.384e-11  
    6.50000       6.5000     6.364e-11    7.382e-11    8.400e-11  
    6.51000       6.5100     6.376e-11    7.396e-11    8.415e-11  
    6.52000       6.5200     6.388e-11    7.409e-11    8.431e-11  
    6.53000       6.5300     6.399e-11    7.423e-11    8.446e-11  
    6.54000       6.5400     6.411e-11    7.437e-11    8.462e-11  
    6.55000       6.5500     6.423e-11    7.450e-11    8.478e-11  
    6.56000       6.5600     6.435e-11    7.464e-11    8.494e-11  
    6.57000       6.5700     6.446e-11    7.478e-11    8.509e-11  
    6.58000       6.5800     6.458e-11    7.492e-11    8.525e-11  
    6.59000       6.5900     6.470e-11    7.506e-11    8.541e-11  
    6.60000       6.6000     6.482e-11    7.519e-11    8.557e-11  
    6.61000       6.6100     6.494e-11    7.533e-11    8.573e-11  
    6.62000       6.6200     6.506e-11    7.547e-11    8.589e-11  
    6.63000       6.6300     6.518e-11    7.561e-11    8.604e-11  
    6.64000       6.6400     6.530e-11    7.575e-11    8.620e-11  
    6.65000       6.6500     6.542e-11    7.589e-11    8.636e-11  
    6.66000       6.6600     6.553e-11    7.603e-11    8.652e-11  
    6.67000       6.6700     6.565e-11    7.617e-11    8.668e-11  
    6.68000       6.6800     6.577e-11    7.631e-11    8.684e-11  
    6.69000       6.6900     6.590e-11    7.645e-11    8.701e-11  
    6.70000       6.7000     6.602e-11    7.659e-11    8.717e-11  
    6.71000       6.7100     6.614e-11    7.673e-11    8.733e-11  
    6.72000       6.7200     6.626e-11    7.687e-11    8.749e-11  
    6.73000       6.7300     6.638e-11    7.701e-11    8.765e-11  
    6.74000       6.7400     6.650e-11    7.716e-11    8.781e-11  
    6.75000       6.7500     6.662e-11    7.730e-11    8.798e-11  
    6.76000       6.7600     6.674e-11    7.744e-11    8.814e-11  
    6.77000       6.7700     6.686e-11    7.758e-11    8.830e-11  
    6.78000       6.7800     6.699e-11    7.773e-11    8.846e-11  
    6.79000       6.7900     6.711e-11    7.787e-11    8.863e-11  
    6.80000       6.8000     6.723e-11    7.801e-11    8.879e-11  
    6.81000       6.8100     6.735e-11    7.815e-11    8.896e-11  
    6.82000       6.8200     6.748e-11    7.830e-11    8.912e-11  
    6.83000       6.8300     6.760e-11    7.844e-11    8.928e-11  
    6.84000       6.8400     6.772e-11    7.859e-11    8.945e-11  
    6.85000       6.8500     6.785e-11    7.873e-11    8.961e-11  
    6.86000       6.8600     6.797e-11    7.887e-11    8.978e-11  
    6.87000       6.8700     6.809e-11    7.902e-11    8.995e-11  
    6.88000       6.8800     6.822e-11    7.916e-11    9.011e-11  
    6.89000       6.8900     6.834e-11    7.931e-11    9.028e-11  
    6.90000       6.9000     6.846e-11    7.945e-11    9.044e-11  
    6.91000       6.9100     6.859e-11    7.960e-11    9.061e-11  
    6.92000       6.9200     6.871e-11    7.975e-11    9.078e-11  
    6.93000       6.9300     6.884e-11    7.989e-11    9.094e-11  
    6.94000       6.9400     6.896e-11    8.004e-11    9.111e-11  
    6.95000       6.9500     6.909e-11    8.018e-11    9.128e-11  
    6.96000       6.9600     6.921e-11    8.033e-11    9.145e-11  
    6.97000       6.9700     6.934e-11    8.048e-11    9.162e-11  
    6.98000       6.9800     6.947e-11    8.062e-11    9.178e-11  
    6.99000       6.9900     6.959e-11    8.077e-11    9.195e-11  
    7.00000       7.0000     6.972e-11    8.092e-11    9.212e-11  
    7.01000       7.0100     6.984e-11    8.107e-11    9.229e-11  
    7.02000       7.0200     6.997e-11    8.122e-11    9.246e-11  
    7.03000       7.0300     7.010e-11    8.136e-11    9.263e-11  
    7.04000       7.0400     7.022e-11    8.151e-11    9.280e-11  
    7.05000       7.0500     7.035e-11    8.166e-11    9.297e-11  
    7.06000       7.0600     7.048e-11    8.181e-11    9.314e-11  
    7.07000       7.0700     7.061e-11    8.196e-11    9.331e-11  
    7.08000       7.0800     7.073e-11    8.211e-11    9.348e-11  
    7.09000       7.0900     7.086e-11    8.226e-11    9.365e-11  
    7.10000       7.1000     7.099e-11    8.241e-11    9.383e-11  
    7.11000       7.1100     7.112e-11    8.256e-11    9.400e-11  
    7.12000       7.1200     7.125e-11    8.271e-11    9.417e-11  
    7.13000       7.1300     7.137e-11    8.286e-11    9.434e-11  
    7.14000       7.1400     7.150e-11    8.301e-11    9.451e-11  
    7.15000       7.1500     7.163e-11    8.316e-11    9.469e-11  
    7.16000       7.1600     7.176e-11    8.331e-11    9.486e-11  
    7.17000       7.1700     7.189e-11    8.346e-11    9.503e-11  
    7.18000       7.1800     7.202e-11    8.361e-11    9.521e-11  
    7.19000       7.1900     7.215e-11    8.377e-11    9.538e-11  
    7.20000       7.2000     7.228e-11    8.392e-11    9.556e-11  
    7.21000       7.2100     7.241e-11    8.407e-11    9.573e-11  
    7.22000       7.2200     7.254e-11    8.422e-11    9.591e-11  
    7.23000       7.2300     7.267e-11    8.437e-11    9.608e-11  
    7.24000       7.2400     7.280e-11    8.453e-11    9.626e-11  
    7.25000       7.2500     7.293e-11    8.468e-11    9.643e-11  
    7.26000       7.2600     7.306e-11    8.483e-11    9.661e-11  
    7.27000       7.2700     7.319e-11    8.499e-11    9.678e-11  
    7.28000       7.2800     7.332e-11    8.514e-11    9.696e-11  
    7.29000       7.2900     7.346e-11    8.530e-11    9.713e-11  
    7.30000       7.3000     7.359e-11    8.545e-11    9.731e-11  
    7.31000       7.3100     7.372e-11    8.560e-11    9.749e-11  
    7.32000       7.3200     7.385e-11    8.576e-11    9.767e-11  
    7.33000       7.3300     7.398e-11    8.591e-11    9.784e-11  
    7.34000       7.3400     7.412e-11    8.607e-11    9.802e-11  
    7.35000       7.3500     7.425e-11    8.622e-11    9.820e-11  
    7.36000       7.3600     7.438e-11    8.638e-11    9.838e-11  
    7.37000       7.3700     7.451e-11    8.653e-11    9.856e-11  
    7.38000       7.3800     7.465e-11    8.669e-11    9.873e-11  
    7.39000       7.3900     7.478e-11    8.685e-11    9.891e-11  
    7.40000       7.4000     7.491e-11    8.700e-11    9.909e-11  
    7.41000       7.4100     7.505e-11    8.716e-11    9.927e-11  
    7.42000       7.4200     7.518e-11    8.732e-11    9.945e-11  
    7.43000       7.4300     7.531e-11    8.747e-11    9.963e-11  
    7.44000       7.4400     7.545e-11    8.763e-11    9.981e-11  
    7.45000       7.4500     7.558e-11    8.779e-11    9.999e-11  
    7.46000       7.4600     7.572e-11    8.795e-11    1.002e-10  
    7.47000       7.4700     7.585e-11    8.810e-11    1.004e-10  
    7.48000       7.4800     7.599e-11    8.826e-11    1.005e-10  
    7.49000       7.4900     7.612e-11    8.842e-11    1.007e-10  
    7.50000       7.5000     7.626e-11    8.858e-11    1.009e-10  
    7.51000       7.5100     7.639e-11    8.874e-11    1.011e-10  
    7.52000       7.5200     7.653e-11    8.890e-11    1.013e-10  
    7.53000       7.5300     7.666e-11    8.906e-11    1.014e-10  
    7.54000       7.5400     7.680e-11    8.921e-11    1.016e-10  
    7.55000       7.5500     7.694e-11    8.937e-11    1.018e-10  
    7.56000       7.5600     7.707e-11    8.953e-11    1.020e-10  
    7.57000       7.5700     7.721e-11    8.969e-11    1.022e-10  
    7.58000       7.5800     7.735e-11    8.985e-11    1.024e-10  
    7.59000       7.5900     7.748e-11    9.002e-11    1.025e-10  
    7.60000       7.6000     7.762e-11    9.018e-11    1.027e-10  
    7.61000       7.6100     7.776e-11    9.034e-11    1.029e-10  
    7.62000       7.6200     7.789e-11    9.050e-11    1.031e-10  
    7.63000       7.6300     7.803e-11    9.066e-11    1.033e-10  
    7.64000       7.6400     7.817e-11    9.082e-11    1.035e-10  
    7.65000       7.6500     7.831e-11    9.098e-11    1.037e-10  
    7.66000       7.6600     7.845e-11    9.114e-11    1.038e-10  
    7.67000       7.6700     7.858e-11    9.131e-11    1.040e-10  
    7.68000       7.6800     7.872e-11    9.147e-11    1.042e-10  
    7.69000       7.6900     7.886e-11    9.163e-11    1.044e-10  
    7.70000       7.7000     7.900e-11    9.179e-11    1.046e-10  
    7.71000       7.7100     7.914e-11    9.196e-11    1.048e-10  
    7.72000       7.7200     7.928e-11    9.212e-11    1.050e-10  
    7.73000       7.7300     7.942e-11    9.228e-11    1.052e-10  
    7.74000       7.7400     7.956e-11    9.245e-11    1.053e-10  
    7.75000       7.7500     7.970e-11    9.261e-11    1.055e-10  
    7.76000       7.7600     7.984e-11    9.278e-11    1.057e-10  
    7.77000       7.7700     7.998e-11    9.294e-11    1.059e-10  
    7.78000       7.7800     8.012e-11    9.310e-11    1.061e-10  
    7.79000       7.7900     8.026e-11    9.327e-11    1.063e-10  
    7.80000       7.8000     8.040e-11    9.343e-11    1.065e-10  
    7.81000       7.8100     8.054e-11    9.360e-11    1.067e-10  
    7.82000       7.8200     8.068e-11    9.376e-11    1.069e-10  
    7.83000       7.8300     8.082e-11    9.393e-11    1.070e-10  
    7.84000       7.8400     8.096e-11    9.410e-11    1.072e-10  
    7.85000       7.8500     8.110e-11    9.426e-11    1.074e-10  
    7.86000       7.8600     8.124e-11    9.443e-11    1.076e-10  
    7.87000       7.8700     8.139e-11    9.459e-11    1.078e-10  
    7.88000       7.8800     8.153e-11    9.476e-11    1.080e-10  
    7.89000       7.8900     8.167e-11    9.493e-11    1.082e-10  
    7.90000       7.9000     8.181e-11    9.510e-11    1.084e-10  
    7.91000       7.9100     8.196e-11    9.526e-11    1.086e-10  
    7.92000       7.9200     8.210e-11    9.543e-11    1.088e-10  
    7.93000       7.9300     8.224e-11    9.560e-11    1.090e-10  
    7.94000       7.9400     8.238e-11    9.577e-11    1.091e-10  
    7.95000       7.9500     8.253e-11    9.593e-11    1.093e-10  
    7.96000       7.9600     8.267e-11    9.610e-11    1.095e-10  
    7.97000       7.9700     8.281e-11    9.627e-11    1.097e-10  
    7.98000       7.9800     8.296e-11    9.644e-11    1.099e-10  
    7.99000       7.9900     8.310e-11    9.661e-11    1.101e-10  
    8.00000       8.0000     8.325e-11    9.678e-11    1.103e-10  
    8.01000       8.0100     8.339e-11    9.695e-11    1.105e-10  
    8.02000       8.0200     8.353e-11    9.712e-11    1.107e-10  
    8.03000       8.0300     8.368e-11    9.729e-11    1.109e-10  
    8.04000       8.0400     8.382e-11    9.746e-11    1.111e-10  
    8.05000       8.0500     8.397e-11    9.763e-11    1.113e-10  
    8.06000       8.0600     8.411e-11    9.780e-11    1.115e-10  
    8.07000       8.0700     8.426e-11    9.797e-11    1.117e-10  
    8.08000       8.0800     8.440e-11    9.814e-11    1.119e-10  
    8.09000       8.0900     8.455e-11    9.831e-11    1.121e-10  
    8.10000       8.1000     8.470e-11    9.848e-11    1.123e-10  
    8.11000       8.1100     8.484e-11    9.865e-11    1.125e-10  
    8.12000       8.1200     8.499e-11    9.882e-11    1.127e-10  
    8.13000       8.1300     8.513e-11    9.899e-11    1.129e-10  
    8.14000       8.1400     8.528e-11    9.917e-11    1.131e-10  
    8.15000       8.1500     8.543e-11    9.934e-11    1.133e-10  
    8.16000       8.1600     8.557e-11    9.951e-11    1.134e-10  
    8.17000       8.1700     8.572e-11    9.968e-11    1.136e-10  
    8.18000       8.1800     8.587e-11    9.986e-11    1.138e-10  
    8.19000       8.1900     8.602e-11    1.000e-10    1.140e-10  
    8.20000       8.2000     8.616e-11    1.002e-10    1.142e-10  
    8.21000       8.2100     8.631e-11    1.004e-10    1.144e-10  
    8.22000       8.2200     8.646e-11    1.006e-10    1.146e-10  
    8.23000       8.2300     8.661e-11    1.007e-10    1.148e-10  
    8.24000       8.2400     8.676e-11    1.009e-10    1.150e-10  
    8.25000       8.2500     8.690e-11    1.011e-10    1.152e-10  
    8.26000       8.2600     8.705e-11    1.012e-10    1.154e-10  
    8.27000       8.2700     8.720e-11    1.014e-10    1.156e-10  
    8.28000       8.2800     8.735e-11    1.016e-10    1.158e-10  
    8.29000       8.2900     8.750e-11    1.018e-10    1.160e-10  
    8.30000       8.3000     8.765e-11    1.019e-10    1.162e-10  
    8.31000       8.3100     8.780e-11    1.021e-10    1.164e-10  
    8.32000       8.3200     8.795e-11    1.023e-10    1.167e-10  
    8.33000       8.3300     8.810e-11    1.025e-10    1.169e-10  
    8.34000       8.3400     8.825e-11    1.027e-10    1.171e-10  
    8.35000       8.3500     8.840e-11    1.028e-10    1.173e-10  
    8.36000       8.3600     8.855e-11    1.030e-10    1.175e-10  
    8.37000       8.3700     8.870e-11    1.032e-10    1.177e-10  
    8.38000       8.3800     8.885e-11    1.034e-10    1.179e-10  
    8.39000       8.3900     8.900e-11    1.035e-10    1.181e-10  
    8.40000       8.4000     8.915e-11    1.037e-10    1.183e-10  
    8.41000       8.4100     8.930e-11    1.039e-10    1.185e-10  
    8.42000       8.4200     8.945e-11    1.041e-10    1.187e-10  
    8.43000       8.4300     8.960e-11    1.042e-10    1.189e-10  
    8.44000       8.4400     8.975e-11    1.044e-10    1.191e-10  
    8.45000       8.4500     8.991e-11    1.046e-10    1.193e-10  
    8.46000       8.4600     9.006e-11    1.048e-10    1.195e-10  
    8.47000       8.4700     9.021e-11    1.050e-10    1.197e-10  
    8.48000       8.4800     9.036e-11    1.051e-10    1.199e-10  
    8.49000       8.4900     9.052e-11    1.053e-10    1.201e-10  
    8.50000       8.5000     9.067e-11    1.055e-10    1.203e-10  
    8.51000       8.5100     9.082e-11    1.057e-10    1.205e-10  
    8.52000       8.5200     9.097e-11    1.059e-10    1.207e-10  
    8.53000       8.5300     9.113e-11    1.060e-10    1.209e-10  
    8.54000       8.5400     9.128e-11    1.062e-10    1.212e-10  
    8.55000       8.5500     9.143e-11    1.064e-10    1.214e-10  
    8.56000       8.5600     9.159e-11    1.066e-10    1.216e-10  
    8.57000       8.5700     9.174e-11    1.068e-10    1.218e-10  
    8.58000       8.5800     9.189e-11    1.069e-10    1.220e-10  
    8.59000       8.5900     9.205e-11    1.071e-10    1.222e-10  
    8.60000       8.6000     9.220e-11    1.073e-10    1.224e-10  
    8.61000       8.6100     9.236e-11    1.075e-10    1.226e-10  
    8.62000       8.6200     9.251e-11    1.077e-10    1.228e-10  
    8.63000       8.6300     9.267e-11    1.078e-10    1.230e-10  
    8.64000       8.6400     9.282e-11    1.080e-10    1.232e-10  
    8.65000       8.6500     9.298e-11    1.082e-10    1.234e-10  
    8.66000       8.6600     9.313e-11    1.084e-10    1.237e-10  
    8.67000       8.6700     9.329e-11    1.086e-10    1.239e-10  
    8.68000       8.6800     9.344e-11    1.088e-10    1.241e-10  
    8.69000       8.6900     9.360e-11    1.089e-10    1.243e-10  
    8.70000       8.7000     9.376e-11    1.091e-10    1.245e-10  
    8.71000       8.7100     9.391e-11    1.093e-10    1.247e-10  
    8.72000       8.7200     9.407e-11    1.095e-10    1.249e-10  
    8.73000       8.7300     9.422e-11    1.097e-10    1.251e-10  
    8.74000       8.7400     9.438e-11    1.099e-10    1.253e-10  
    8.75000       8.7500     9.454e-11    1.100e-10    1.256e-10  
    8.76000       8.7600     9.469e-11    1.102e-10    1.258e-10  
    8.77000       8.7700     9.485e-11    1.104e-10    1.260e-10  
    8.78000       8.7800     9.501e-11    1.106e-10    1.262e-10  
    8.79000       8.7900     9.517e-11    1.108e-10    1.264e-10  
    8.80000       8.8000     9.532e-11    1.110e-10    1.266e-10  
    8.81000       8.8100     9.548e-11    1.112e-10    1.268e-10  
    8.82000       8.8200     9.564e-11    1.113e-10    1.270e-10  
    8.83000       8.8300     9.580e-11    1.115e-10    1.273e-10  
    8.84000       8.8400     9.596e-11    1.117e-10    1.275e-10  
    8.85000       8.8500     9.611e-11    1.119e-10    1.277e-10  
    8.86000       8.8600     9.627e-11    1.121e-10    1.279e-10  
    8.87000       8.8700     9.643e-11    1.123e-10    1.281e-10  
    8.88000       8.8800     9.659e-11    1.125e-10    1.283e-10  
    8.89000       8.8900     9.675e-11    1.127e-10    1.286e-10  
    8.90000       8.9000     9.691e-11    1.128e-10    1.288e-10  
    8.91000       8.9100     9.707e-11    1.130e-10    1.290e-10  
    8.92000       8.9200     9.723e-11    1.132e-10    1.292e-10  
    8.93000       8.9300     9.739e-11    1.134e-10    1.294e-10  
    8.94000       8.9400     9.755e-11    1.136e-10    1.296e-10  
    8.95000       8.9500     9.771e-11    1.138e-10    1.298e-10  
    8.96000       8.9600     9.787e-11    1.140e-10    1.301e-10  
    8.97000       8.9700     9.803e-11    1.142e-10    1.303e-10  
    8.98000       8.9800     9.819e-11    1.143e-10    1.305e-10  
    8.99000       8.9900     9.835e-11    1.145e-10    1.307e-10  
    9.00000       9.0000     9.851e-11    1.147e-10    1.309e-10  
    9.01000       9.0100     9.867e-11    1.149e-10    1.312e-10  
    9.02000       9.0200     9.883e-11    1.151e-10    1.314e-10  
    9.03000       9.0300     9.899e-11    1.153e-10    1.316e-10  
    9.04000       9.0400     9.916e-11    1.155e-10    1.318e-10  
    9.05000       9.0500     9.932e-11    1.157e-10    1.320e-10  
    9.06000       9.0600     9.948e-11    1.159e-10    1.322e-10  
    9.07000       9.0700     9.964e-11    1.161e-10    1.325e-10  
    9.08000       9.0800     9.980e-11    1.162e-10    1.327e-10  
    9.09000       9.0900     9.997e-11    1.164e-10    1.329e-10  
    9.10000       9.1000     1.001e-10    1.166e-10    1.331e-10  
    9.11000       9.1100     1.003e-10    1.168e-10    1.333e-10  
    9.12000       9.1200     1.005e-10    1.170e-10    1.336e-10  
    9.13000       9.1300     1.006e-10    1.172e-10    1.338e-10  
    9.14000       9.1400     1.008e-10    1.174e-10    1.340e-10  
    9.15000       9.1500     1.009e-10    1.176e-10    1.342e-10  
    9.16000       9.1600     1.011e-10    1.178e-10    1.345e-10  
    9.17000       9.1700     1.013e-10    1.180e-10    1.347e-10  
    9.18000       9.1800     1.014e-10    1.182e-10    1.349e-10  
    9.19000       9.1900     1.016e-10    1.184e-10    1.351e-10  
    9.20000       9.2000     1.018e-10    1.186e-10    1.353e-10  
    9.21000       9.2100     1.019e-10    1.187e-10    1.356e-10  
    9.22000       9.2200     1.021e-10    1.189e-10    1.358e-10  
    9.23000       9.2300     1.023e-10    1.191e-10    1.360e-10  
    9.24000       9.2400     1.024e-10    1.193e-10    1.362e-10  
    9.25000       9.2500     1.026e-10    1.195e-10    1.365e-10  
    9.26000       9.2600     1.028e-10    1.197e-10    1.367e-10  
    9.27000       9.2700     1.029e-10    1.199e-10    1.369e-10  
    9.28000       9.2800     1.031e-10    1.201e-10    1.371e-10  
    9.29000       9.2900     1.032e-10    1.203e-10    1.374e-10  
    9.30000       9.3000     1.034e-10    1.205e-10    1.376e-10  
    9.31000       9.3100     1.036e-10    1.207e-10    1.378e-10  
    9.32000       9.3200     1.037e-10    1.209e-10    1.380e-10  
    9.33000       9.3300     1.039e-10    1.211e-10    1.383e-10  
    9.34000       9.3400     1.041e-10    1.213e-10    1.385e-10  
    9.35000       9.3500     1.042e-10    1.215e-10    1.387e-10  
    9.36000       9.3600     1.044e-10    1.217e-10    1.389e-10  
    9.37000       9.3700     1.046e-10    1.219e-10    1.392e-10  
    9.38000       9.3800     1.047e-10    1.221e-10    1.394e-10  
    9.39000       9.3900     1.049e-10    1.223e-10    1.396e-10  
    9.40000       9.4000     1.051e-10    1.225e-10    1.398e-10  
    9.41000       9.4100     1.052e-10    1.227e-10    1.401e-10  
    9.42000       9.4200     1.054e-10    1.229e-10    1.403e-10  
    9.43000       9.4300     1.056e-10    1.231e-10    1.405e-10  
    9.44000       9.4400     1.058e-10    1.232e-10    1.407e-10  
    9.45000       9.4500     1.059e-10    1.234e-10    1.410e-10  
    9.46000       9.4600     1.061e-10    1.236e-10    1.412e-10  
    9.47000       9.4700     1.063e-10    1.238e-10    1.414e-10  
    9.48000       9.4800     1.064e-10    1.240e-10    1.417e-10  
    9.49000       9.4900     1.066e-10    1.242e-10    1.419e-10  
    9.50000       9.5000     1.068e-10    1.244e-10    1.421e-10  
    9.51000       9.5100     1.069e-10    1.246e-10    1.423e-10  
    9.52000       9.5200     1.071e-10    1.248e-10    1.426e-10  
    9.53000       9.5300     1.073e-10    1.250e-10    1.428e-10  
    9.54000       9.5400     1.074e-10    1.252e-10    1.430e-10  
    9.55000       9.5500     1.076e-10    1.254e-10    1.433e-10  
    9.56000       9.5600     1.078e-10    1.256e-10    1.435e-10  
    9.57000       9.5700     1.079e-10    1.258e-10    1.437e-10  
    9.58000       9.5800     1.081e-10    1.260e-10    1.440e-10  
    9.59000       9.5900     1.083e-10    1.262e-10    1.442e-10  
    9.60000       9.6000     1.085e-10    1.264e-10    1.444e-10  
    9.61000       9.6100     1.086e-10    1.266e-10    1.447e-10  
    9.62000       9.6200     1.088e-10    1.268e-10    1.449e-10  
    9.63000       9.6300     1.090e-10    1.270e-10    1.451e-10  
    9.64000       9.6400     1.091e-10    1.272e-10    1.454e-10  
    9.65000       9.6500     1.093e-10    1.274e-10    1.456e-10  
    9.66000       9.6600     1.095e-10    1.277e-10    1.458e-10  
    9.67000       9.6700     1.097e-10    1.279e-10    1.461e-10  
    9.68000       9.6800     1.098e-10    1.281e-10    1.463e-10  
    9.69000       9.6900     1.100e-10    1.283e-10    1.465e-10  
    9.70000       9.7000     1.102e-10    1.285e-10    1.468e-10  
    9.71000       9.7100     1.103e-10    1.287e-10    1.470e-10  
    9.72000       9.7200     1.105e-10    1.289e-10    1.472e-10  
    9.73000       9.7300     1.107e-10    1.291e-10    1.475e-10  
    9.74000       9.7400     1.109e-10    1.293e-10    1.477e-10  
    9.75000       9.7500     1.110e-10    1.295e-10    1.479e-10  
    9.76000       9.7600     1.112e-10    1.297e-10    1.482e-10  
    9.77000       9.7700     1.114e-10    1.299e-10    1.484e-10  
    9.78000       9.7800     1.116e-10    1.301e-10    1.486e-10  
    9.79000       9.7900     1.117e-10    1.303e-10    1.489e-10  
    9.80000       9.8000     1.119e-10    1.305e-10    1.491e-10  
    9.81000       9.8100     1.121e-10    1.307e-10    1.493e-10  
    9.82000       9.8200     1.123e-10    1.309e-10    1.496e-10  
    9.83000       9.8300     1.124e-10    1.311e-10    1.498e-10  
    9.84000       9.8400     1.126e-10    1.313e-10    1.500e-10  
    9.85000       9.8500     1.128e-10    1.315e-10    1.503e-10  
    9.86000       9.8600     1.129e-10    1.317e-10    1.505e-10  
    9.87000       9.8700     1.131e-10    1.319e-10    1.508e-10  
    9.88000       9.8800     1.133e-10    1.321e-10    1.510e-10  
    9.89000       9.8900     1.135e-10    1.324e-10    1.512e-10  
    9.90000       9.9000     1.137e-10    1.326e-10    1.515e-10  
    9.91000       9.9100     1.138e-10    1.328e-10    1.517e-10  
    9.92000       9.9200     1.140e-10    1.330e-10    1.519e-10  
    9.93000       9.9300     1.142e-10    1.332e-10    1.522e-10  
    9.94000       9.9400     1.144e-10    1.334e-10    1.524e-10  
    9.95000       9.9500     1.145e-10    1.336e-10    1.527e-10  
    9.96000       9.9600     1.147e-10    1.338e-10    1.529e-10  
    9.97000       9.9700     1.149e-10    1.340e-10    1.531e-10  
    9.98000       9.9800     1.151e-10    1.342e-10    1.534e-10  
    9.99000       9.9900     1.152e-10    1.344e-10    1.536e-10  
   10.00000      10.0000     1.154e-10    1.346e-10    1.539e-10  
   10.01000      10.0100     1.156e-10    1.348e-10    1.541e-10  
   10.02000      10.0200     1.158e-10    1.351e-10    1.543e-10  
   10.03000      10.0300     1.159e-10    1.353e-10    1.546e-10  
   10.04000      10.0400     1.161e-10    1.355e-10    1.548e-10  
   10.05000      10.0500     1.163e-10    1.357e-10    1.551e-10  
   10.06000      10.0600     1.165e-10    1.359e-10    1.553e-10  
   10.07000      10.0700     1.167e-10    1.361e-10    1.556e-10  
   10.08000      10.0800     1.168e-10    1.363e-10    1.558e-10  
   10.09000      10.0900     1.170e-10    1.365e-10    1.560e-10  
   10.10000      10.1000     1.172e-10    1.367e-10    1.563e-10  
   10.11000      10.1100     1.174e-10    1.369e-10    1.565e-10  
   10.12000      10.1200     1.175e-10    1.372e-10    1.568e-10  
   10.13000      10.1300     1.177e-10    1.374e-10    1.570e-10  
   10.14000      10.1400     1.179e-10    1.376e-10    1.572e-10  
   10.15000      10.1500     1.181e-10    1.378e-10    1.575e-10  
   10.16000      10.1600     1.183e-10    1.380e-10    1.577e-10  
   10.17000      10.1700     1.184e-10    1.382e-10    1.580e-10  
   10.18000      10.1800     1.186e-10    1.384e-10    1.582e-10  
   10.19000      10.1900     1.188e-10    1.386e-10    1.585e-10  
   10.20000      10.2000     1.190e-10    1.388e-10    1.587e-10  
   10.21000      10.2100     1.192e-10    1.391e-10    1.590e-10  
   10.22000      10.2200     1.193e-10    1.393e-10    1.592e-10  
   10.23000      10.2300     1.195e-10    1.395e-10    1.594e-10  
   10.24000      10.2400     1.197e-10    1.397e-10    1.597e-10  
   10.25000      10.2500     1.199e-10    1.399e-10    1.599e-10  
   10.26000      10.2600     1.201e-10    1.401e-10    1.602e-10  
   10.27000      10.2700     1.202e-10    1.403e-10    1.604e-10  
   10.28000      10.2800     1.204e-10    1.406e-10    1.607e-10  
   10.29000      10.2900     1.206e-10    1.408e-10    1.609e-10  
   10.30000      10.3000     1.208e-10    1.410e-10    1.612e-10  
   10.31000      10.3100     1.210e-10    1.412e-10    1.614e-10  
   10.32000      10.3200     1.212e-10    1.414e-10    1.617e-10  
   10.33000      10.3300     1.213e-10    1.416e-10    1.619e-10  
   10.34000      10.3400     1.215e-10    1.418e-10    1.622e-10  
   10.35000      10.3500     1.217e-10    1.421e-10    1.624e-10  
   10.36000      10.3600     1.219e-10    1.423e-10    1.627e-10  
   10.37000      10.3700     1.221e-10    1.425e-10    1.629e-10  
[...]
   12.29000      12.2900     3.719e-03    4.470e-03    5.220e-03  
   12.30000      12.3000     3.724e-03    4.475e-03    5.227e-03  
   12.31000      12.3100     3.728e-03    4.481e-03    5.234e-03  
   12.32000      12.3200     3.733e-03    4.487e-03    5.240e-03  
   12.33000      12.3300     3.738e-03    4.492e-03    5.247e-03  
   12.34000      12.3400     3.743e-03    4.498e-03    5.254e-03  
   12.35000      12.3500     3.748e-03    4.504e-03    5.260e-03  
   12.36000      12.3600     3.752e-03    4.510e-03    5.267e-03  
   12.37000      12.3700     3.757e-03    4.516e-03    5.274e-03  
   12.38000      12.3800     3.762e-03    4.521e-03    5.281e-03  
   12.39000      12.3900     3.767e-03    4.527e-03    5.287e-03  
   12.40000      12.4000     3.772e-03    4.533e-03    5.294e-03  
   12.41000      12.4100     3.776e-03    4.539e-03    5.301e-03  
   12.42000      12.4200     3.781e-03    4.544e-03    5.308e-03  
   12.43000      12.4300     3.786e-03    4.550e-03    5.314e-03  
   12.44000      12.4400     3.791e-03    4.556e-03    5.321e-03  
   12.45000      12.4500     3.796e-03    4.562e-03    5.328e-03  
   12.46000      12.4600     3.800e-03    4.568e-03    5.335e-03  
   12.47000      12.4700     3.805e-03    4.573e-03    5.341e-03  
   12.48000      12.4800     3.810e-03    4.579e-03    5.348e-03  
   12.49000      12.4900     3.815e-03    4.585e-03    5.355e-03  
   12.50000      12.5000     3.820e-03    4.591e-03    5.362e-03  
   12.51000      12.5100     3.825e-03    4.596e-03    5.368e-03  
   12.52000      12.5200     3.829e-03    4.602e-03    5.375e-03  
   12.53000      12.5300     3.834e-03    4.608e-03    5.382e-03  
   12.54000      12.5400     3.839e-03    4.614e-03    5.389e-03  
   12.55000      12.5500     3.844e-03    4.620e-03    5.396e-03  
   12.56000      12.5600     3.849e-03    4.626e-03    5.402e-03  
   12.57000      12.5700     3.854e-03    4.631e-03    5.409e-03  
   12.58000      12.5800     3.858e-03    4.637e-03    5.416e-03  
   12.59000      12.5900     3.863e-03    4.643e-03    5.423e-03  
   12.60000      12.6000     3.868e-03    4.649e-03    5.430e-03  
   12.61000      12.6100     3.873e-03    4.655e-03    5.436e-03  
   12.62000      12.6200     3.878e-03    4.660e-03    5.443e-03  
   12.63000      12.6300     3.883e-03    4.666e-03    5.450e-03  
   12.64000      12.6400     3.887e-03    4.672e-03    5.457e-03  
   12.65000      12.6500     3.892e-03    4.678e-03    5.464e-03  
   12.66000      12.6600     3.897e-03    4.684e-03    5.471e-03  
   12.67000      12.6700     3.902e-03    4.690e-03    5.477e-03  
   12.68000      12.6800     3.907e-03    4.696e-03    5.484e-03  
   12.69000      12.6900     3.912e-03    4.701e-03    5.491e-03  
   12.70000      12.7000     3.917e-03    4.707e-03    5.498e-03  
   12.71000      12.7100     3.922e-03    4.713e-03    5.505e-03  
   12.72000      12.7200     3.926e-03    4.719e-03    5.512e-03  
   12.73000      12.7300     3.931e-03    4.725e-03    5.518e-03  
   12.74000      12.7400     3.936e-03    4.731e-03    5.525e-03  
   12.75000      12.7500     3.941e-03    4.737e-03    5.532e-03  
   12.76000      12.7600     3.946e-03    4.742e-03    5.539e-03  
   12.77000      12.7700     3.951e-03    4.748e-03    5.546e-03  
   12.78000      12.7800     3.956e-03    4.754e-03    5.553e-03  
   12.79000      12.7900     3.961e-03    4.760e-03    5.560e-03  
   12.80000      12.8000     3.965e-03    4.766e-03    5.566e-03  
   12.81000      12.8100     3.970e-03    4.772e-03    5.573e-03  
   12.82000      12.8200     3.975e-03    4.778e-03    5.580e-03  
   12.83000      12.8300     3.980e-03    4.784e-03    5.587e-03  
   12.84000      12.8400     3.985e-03    4.790e-03    5.594e-03  
   12.85000      12.8500     3.990e-03    4.795e-03    5.601e-03  
   12.86000      12.8600     3.995e-03    4.801e-03    5.608e-03  
   12.87000      12.8700     4.000e-03    4.807e-03    5.615e-03  
   12.88000      12.8800     4.005e-03    4.813e-03    5.622e-03  
   12.89000      12.8900     4.010e-03    4.819e-03    5.628e-03  
   12.90000      12.9000     4.014e-03    4.825e-03    5.635e-03  
   12.91000      12.9100     4.019e-03    4.831e-03    5.642e-03  
   12.92000      12.9200     4.024e-03    4.837e-03    5.649e-03  
   12.93000      12.9300     4.029e-03    4.843e-03    5.656e-03  
   12.94000      12.9400     4.034e-03    4.849e-03    5.663e-03  
   12.95000      12.9500     4.039e-03    4.855e-03    5.670e-03  
   12.96000      12.9600     4.044e-03    4.860e-03    5.677e-03  
   12.97000      12.9700     4.049e-03    4.866e-03    5.684e-03  
   12.98000      12.9800     4.054e-03    4.872e-03    5.691e-03  
   12.99000      12.9900     4.059e-03    4.878e-03    5.698e-03  
   13.00000      13.0000     4.064e-03    4.884e-03    5.705e-03  
   13.01000      13.0100     4.069e-03    4.890e-03    5.712e-03  
   13.02000      13.0200     4.074e-03    4.896e-03    5.718e-03  
   13.03000      13.0300     4.079e-03    4.902e-03    5.725e-03  
   13.04000      13.0400     4.084e-03    4.908e-03    5.732e-03  
   13.05000      13.0500     4.088e-03    4.914e-03    5.739e-03  
   13.06000      13.0600     4.093e-03    4.920e-03    5.746e-03  
   13.07000      13.0700     4.098e-03    4.926e-03    5.753e-03  
   13.08000      13.0800     4.103e-03    4.932e-03    5.760e-03  
   13.09000      13.0900     4.108e-03    4.938e-03    5.767e-03  
   13.10000      13.1000     4.113e-03    4.944e-03    5.774e-03  
   13.11000      13.1100     4.118e-03    4.950e-03    5.781e-03  
   13.12000      13.1200     4.123e-03    4.956e-03    5.788e-03  
   13.13000      13.1300     4.128e-03    4.962e-03    5.795e-03  
   13.14000      13.1400     4.133e-03    4.968e-03    5.802e-03  
   13.15000      13.1500     4.138e-03    4.974e-03    5.809e-03  
   13.16000      13.1600     4.143e-03    4.979e-03    5.816e-03  
   13.17000      13.1700     4.148e-03    4.985e-03    5.823e-03  
   13.18000      13.1800     4.153e-03    4.991e-03    5.830e-03  
   13.19000      13.1900     4.158e-03    4.997e-03    5.837e-03  
   13.20000      13.2000     4.163e-03    5.003e-03    5.844e-03  
   13.21000      13.2100     4.168e-03    5.009e-03    5.851e-03  
   13.22000      13.2200     4.173e-03    5.015e-03    5.858e-03  
   13.23000      13.2300     4.178e-03    5.021e-03    5.865e-03  
   13.24000      13.2400     4.183e-03    5.027e-03    5.872e-03  
   13.25000      13.2500     4.188e-03    5.033e-03    5.879e-03  
   13.26000      13.2600     4.193e-03    5.039e-03    5.886e-03  
   13.27000      13.2700     4.198e-03    5.045e-03    5.893e-03  
   13.28000      13.2800     4.203e-03    5.051e-03    5.900e-03  
   13.29000      13.2900     4.208e-03    5.057e-03    5.907e-03  
   13.30000      13.3000     4.213e-03    5.063e-03    5.914e-03  
   13.31000      13.3100     4.218e-03    5.069e-03    5.921e-03  
   13.32000      13.3200     4.223e-03    5.075e-03    5.928e-03  
   13.33000      13.3300     4.228e-03    5.081e-03    5.935e-03  
   13.34000      13.3400     4.233e-03    5.088e-03    5.942e-03  
   13.35000      13.3500     4.238e-03    5.094e-03    5.949e-03  
   13.36000      13.3600     4.243e-03    5.100e-03    5.956e-03  
   13.37000      13.3700     4.248e-03    5.106e-03    5.963e-03  
   13.38000      13.3800     4.253e-03    5.112e-03    5.970e-03  
   13.39000      13.3900     4.258e-03    5.118e-03    5.977e-03  
   13.40000      13.4000     4.263e-03    5.124e-03    5.984e-03  
   13.41000      13.4100     4.268e-03    5.130e-03    5.992e-03  
   13.42000      13.4200     4.273e-03    5.136e-03    5.999e-03  
   13.43000      13.4300     4.278e-03    5.142e-03    6.006e-03  
   13.44000      13.4400     4.283e-03    5.148e-03    6.013e-03  
   13.45000      13.4500     4.288e-03    5.154e-03    6.020e-03  
   13.46000      13.4600     4.293e-03    5.160e-03    6.027e-03  
   13.47000      13.4700     4.298e-03    5.166e-03    6.034e-03  
   13.48000      13.4800     4.303e-03    5.172e-03    6.041e-03  
   13.49000      13.4900     4.308e-03    5.178e-03    6.048e-03  
   13.50000      13.5000     4.313e-03    5.184e-03    6.055e-03  
   13.51000      13.5100     4.318e-03    5.190e-03    6.062e-03  
   13.52000      13.5200     4.323e-03    5.196e-03    6.069e-03  
   13.53000      13.5300     4.328e-03    5.202e-03    6.076e-03  
   13.54000      13.5400     4.333e-03    5.208e-03    6.084e-03  
   13.55000      13.5500     4.338e-03    5.215e-03    6.091e-03  
   13.56000      13.5600     4.344e-03    5.221e-03    6.098e-03  
   13.57000      13.5700     4.349e-03    5.227e-03    6.105e-03  
   13.58000      13.5800     4.354e-03    5.233e-03    6.112e-03  
   13.59000      13.5900     4.359e-03    5.239e-03    6.119e-03  
   13.60000      13.6000     4.364e-03    5.245e-03    6.126e-03  
   13.61000      13.6100     4.369e-03    5.251e-03    6.133e-03  
   13.62000      13.6200     4.374e-03    5.257e-03    6.140e-03  
   13.63000      13.6300     4.379e-03    5.263e-03    6.148e-03  
   13.64000      13.6400     4.384e-03    5.269e-03    6.155e-03  
   13.65000      13.6500     4.389e-03    5.275e-03    6.162e-03  
   13.66000      13.6600     4.394e-03    5.282e-03    6.169e-03  
   13.67000      13.6700     4.399e-03    5.288e-03    6.176e-03  
   13.68000      13.6800     4.404e-03    5.294e-03    6.183e-03  
   13.69000      13.6900     4.409e-03    5.300e-03    6.190e-03  
   13.70000      13.7000     4.414e-03    5.306e-03    6.197e-03  
   13.71000      13.7100     4.420e-03    5.312e-03    6.205e-03  
   13.72000      13.7200     4.425e-03    5.318e-03    6.212e-03  
   13.73000      13.7300     4.430e-03    5.324e-03    6.219e-03  
   13.74000      13.7400     4.435e-03    5.330e-03    6.226e-03  
   13.75000      13.7500     4.440e-03    5.337e-03    6.233e-03  
   13.76000      13.7600     4.445e-03    5.343e-03    6.240e-03  
   13.77000      13.7700     4.450e-03    5.349e-03    6.248e-03  
   13.78000      13.7800     4.455e-03    5.355e-03    6.255e-03  
   13.79000      13.7900     4.460e-03    5.361e-03    6.262e-03  
   13.80000      13.8000     4.465e-03    5.367e-03    6.269e-03  
   13.81000      13.8100     4.471e-03    5.373e-03    6.276e-03  
   13.82000      13.8200     4.476e-03    5.379e-03    6.283e-03  
   13.83000      13.8300     4.481e-03    5.386e-03    6.291e-03  
   13.84000      13.8400     4.486e-03    5.392e-03    6.298e-03  
   13.85000      13.8500     4.491e-03    5.398e-03    6.305e-03  
   13.86000      13.8600     4.496e-03    5.404e-03    6.312e-03  
   13.87000      13.8700     4.501e-03    5.410e-03    6.319e-03  
   13.88000      13.8800     4.506e-03    5.416e-03    6.326e-03  
   13.89000      13.8900     4.511e-03    5.423e-03    6.334e-03  
   13.90000      13.9000     4.517e-03    5.429e-03    6.341e-03  
   13.91000      13.9100     4.522e-03    5.435e-03    6.348e-03  
   13.92000      13.9200     4.527e-03    5.441e-03    6.355e-03  
   13.93000      13.9300     4.532e-03    5.447e-03    6.362e-03  
   13.94000      13.9400     4.537e-03    5.453e-03    6.370e-03  
   13.95000      13.9500     4.542e-03    5.459e-03    6.377e-03  
   13.96000      13.9600     4.547e-03    5.466e-03    6.384e-03  
   13.97000      13.9700     4.552e-03    5.472e-03    6.391e-03  
   13.98000      13.9800     4.558e-03    5.478e-03    6.398e-03  
   13.99000      13.9900     4.563e-03    5.484e-03    6.406e-03  
   14.00000      14.0000     4.568e-03    5.490e-03    6.413e-03  
   14.01000      14.0100     4.573e-03    5.497e-03    6.420e-03  
   14.02000      14.0200     4.578e-03    5.503e-03    6.427e-03  
   14.03000      14.0300     4.583e-03    5.509e-03    6.435e-03  
   14.04000      14.0400     4.588e-03    5.515e-03    6.442e-03  
   14.05000      14.0500     4.594e-03    5.521e-03    6.449e-03  
   14.06000      14.0600     4.599e-03    5.527e-03    6.456e-03  
   14.07000      14.0700     4.604e-03    5.534e-03    6.464e-03  
   14.08000      14.0800     4.609e-03    5.540e-03    6.471e-03  
   14.09000      14.0900     4.614e-03    5.546e-03    6.478e-03  
   14.10000      14.1000     4.619e-03    5.552e-03    6.485e-03  
   14.11000      14.1100     4.624e-03    5.558e-03    6.493e-03  
   14.12000      14.1200     4.630e-03    5.565e-03    6.500e-03  
   14.13000      14.1300     4.635e-03    5.571e-03    6.507e-03  
   14.14000      14.1400     4.640e-03    5.577e-03    6.514e-03  
   14.15000      14.1500     4.645e-03    5.583e-03    6.522e-03  
   14.16000      14.1600     4.650e-03    5.590e-03    6.529e-03  
   14.17000      14.1700     4.655e-03    5.596e-03    6.536e-03  
   14.18000      14.1800     4.661e-03    5.602e-03    6.543e-03  
   14.19000      14.1900     4.666e-03    5.608e-03    6.551e-03  
   14.20000      14.2000     4.671e-03    5.614e-03    6.558e-03  
   14.21000      14.2100     4.676e-03    5.621e-03    6.565e-03  
   14.22000      14.2200     4.681e-03    5.627e-03    6.572e-03  
   14.23000      14.2300     4.687e-03    5.633e-03    6.580e-03  
   14.24000      14.2400     4.692e-03    5.639e-03    6.587e-03  
   14.25000      14.2500     4.697e-03    5.646e-03    6.594e-03  
   14.26000      14.2600     4.702e-03    5.652e-03    6.602e-03  
   14.27000      14.2700     4.707e-03    5.658e-03    6.609e-03  
   14.28000      14.2800     4.712e-03    5.664e-03    6.616e-03  
   14.29000      14.2900     4.718e-03    5.671e-03    6.623e-03  
   14.30000      14.3000     4.723e-03    5.677e-03    6.631e-03  
   14.31000      14.3100     4.728e-03    5.683e-03    6.638e-03  
   14.32000      14.3200     4.733e-03    5.689e-03    6.645e-03  
   14.33000      14.3300     4.738e-03    5.696e-03    6.653e-03  
   14.34000      14.3400     4.744e-03    5.702e-03    6.660e-03  
   14.35000      14.3500     4.749e-03    5.708e-03    6.667e-03  
   14.36000      14.3600     4.754e-03    5.714e-03    6.675e-03  
   14.37000      14.3700     4.759e-03    5.721e-03    6.682e-03  
   14.38000      14.3800     4.764e-03    5.727e-03    6.689e-03  
   14.39000      14.3900     4.770e-03    5.733e-03    6.697e-03  
   14.40000      14.4000     4.775e-03    5.739e-03    6.704e-03  
   14.41000      14.4100     4.780e-03    5.746e-03    6.711e-03  
   14.42000      14.4200     4.785e-03    5.752e-03    6.719e-03  
   14.43000      14.4300     4.791e-03    5.758e-03    6.726e-03  
   14.44000      14.4400     4.796e-03    5.764e-03    6.733e-03  
   14.45000      14.4500     4.801e-03    5.771e-03    6.741e-03  
   14.46000      14.4600     4.806e-03    5.777e-03    6.748e-03  
   14.47000      14.4700     4.811e-03    5.783e-03    6.755e-03  
   14.48000      14.4800     4.817e-03    5.790e-03    6.763e-03  
   14.49000      14.4900     4.822e-03    5.796e-03    6.770e-03  
   14.50000      14.5000     4.827e-03    5.802e-03    6.777e-03  
   14.51000      14.5100     4.832e-03    5.808e-03    6.785e-03  
   14.52000      14.5200     4.838e-03    5.815e-03    6.792e-03  
   14.53000      14.5300     4.843e-03    5.821e-03    6.799e-03  
   14.54000      14.5400     4.848e-03    5.827e-03    6.807e-03  
   14.55000      14.5500     4.853e-03    5.834e-03    6.814e-03  
   14.56000      14.5600     4.858e-03    5.840e-03    6.821e-03  
   14.57000      14.5700     4.864e-03    5.846e-03    6.829e-03  
   14.58000      14.5800     4.869e-03    5.853e-03    6.836e-03  
   14.59000      14.5900     4.874e-03    5.859e-03    6.843e-03  
   14.60000      14.6000     4.879e-03    5.865e-03    6.851e-03  
   14.61000      14.6100     4.885e-03    5.871e-03    6.858e-03  
   14.62000      14.6200     4.890e-03    5.878e-03    6.866e-03  
   14.63000      14.6300     4.895e-03    5.884e-03    6.873e-03  
   14.64000      14.6400     4.900e-03    5.890e-03    6.880e-03  
   14.65000      14.6500     4.906e-03    5.897e-03    6.888e-03  
   14.66000      14.6600     4.911e-03    5.903e-03    6.895e-03  
   14.67000      14.6700     4.916e-03    5.909e-03    6.903e-03  
   14.68000      14.6800     4.922e-03    5.916e-03    6.910e-03  
   14.69000      14.6900     4.927e-03    5.922e-03    6.917e-03  
   14.70000      14.7000     4.932e-03    5.928e-03    6.925e-03  
   14.71000      14.7100     4.937e-03    5.935e-03    6.932e-03  
   14.72000      14.7200     4.943e-03    5.941e-03    6.940e-03  
   14.73000      14.7300     4.948e-03    5.947e-03    6.947e-03  
   14.74000      14.7400     4.953e-03    5.954e-03    6.954e-03  
   14.75000      14.7500     4.958e-03    5.960e-03    6.962e-03  
   14.76000      14.7600     4.964e-03    5.966e-03    6.969e-03  
   14.77000      14.7700     4.969e-03    5.973e-03    6.977e-03  
   14.78000      14.7800     4.974e-03    5.979e-03    6.984e-03  
   14.79000      14.7900     4.979e-03    5.985e-03    6.991e-03  
   14.80000      14.8000     4.985e-03    5.992e-03    6.999e-03  
   14.81000      14.8100     4.990e-03    5.998e-03    7.006e-03  
   14.82000      14.8200     4.995e-03    6.004e-03    7.014e-03  
   14.83000      14.8300     5.001e-03    6.011e-03    7.021e-03  
   14.84000      14.8400     5.006e-03    6.017e-03    7.029e-03  
   14.85000      14.8500     5.011e-03    6.024e-03    7.036e-03  
   14.86000      14.8600     5.016e-03    6.030e-03    7.043e-03  
   14.87000      14.8700     5.022e-03    6.036e-03    7.051e-03  
   14.88000      14.8800     5.027e-03    6.043e-03    7.058e-03  
   14.89000      14.8900     5.032e-03    6.049e-03    7.066e-03  
   14.90000      14.9000     5.038e-03    6.055e-03    7.073e-03  
   14.91000      14.9100     5.043e-03    6.062e-03    7.081e-03  
   14.92000      14.9200     5.048e-03    6.068e-03    7.088e-03  
   14.93000      14.9300     5.054e-03    6.075e-03    7.096e-03  
   14.94000      14.9400     5.059e-03    6.081e-03    7.103e-03  
   14.95000      14.9500     5.064e-03    6.087e-03    7.110e-03  
   14.96000      14.9600     5.069e-03    6.094e-03    7.118e-03  
   14.97000      14.9700     5.075e-03    6.100e-03    7.125e-03  
   14.98000      14.9800     5.080e-03    6.106e-03    7.133e-03  
   14.99000      14.9900     5.085e-03    6.113e-03    7.140e-03  
   15.00000      15.0000     5.091e-03    6.119e-03    7.148e-03  
y
-----------------------------------------------

          ***** job concluded
1****** HSPICE -- G-2012.06-SP1 32-BIT (Aug 27 2012) win32 ******               
 ******  
 *sample netlist for gsmc

  ******  job statistics summary tnom=  25.000 temp=  25.000 *****

  ******  HSPICE Threads Information  ******

  Command Line Threads Count :     1
  Available CPU Count        :     8
  Actual Threads Count       :     1


  ******  Circuit Statistics  ******
  # nodes       =      11 # elements   =       8
  # resistors   =       1 # capacitors =       0 # inductors   =       0
  # mutual_inds =       0 # vccs       =       0 # vcvs        =       0
  # cccs        =       0 # ccvs       =       0 # volt_srcs   =       4
  # curr_srcs   =       0 # diodes     =       0 # bjts        =       0
  # jfets       =       0 # mosfets    =       3 # U elements  =       0
  # T elements  =       0 # W elements =       0 # B elements  =       0
  # S elements  =       0 # P elements =       0 # va device   =       0
  # vector_srcs =       0 # N elements =       0


  ******  Runtime Statistics (seconds)  ******

  analysis           time    # points   tot. iter  conv.iter
  op point           0.00           1           0
  dc sweep           0.20       10507       21021
  readin             0.09
  errchk             0.02
  setup              0.03
  output             0.01


           peak memory used         36.70 megabytes
           total cpu time            0.47 seconds
           total elapsed time        0.57 seconds
           job started at     12:00:33 11/17/2018
           job ended   at     12:00:34 11/17/2018


  lic: Release hspice token(s) 
 lic: total license checkout elapse time:        0.08(s)
