 ****** HSPICE -- G-2012.06-SP1 32-BIT (Aug 27 2012) win32 ******               
  Copyright (C) 2012 Synopsys, Inc. All Rights Reserved.                        
  Unpublished-rights reserved under US copyright laws.
  This program is protected by law and is subject to the
  terms and conditions of the license agreement from Synopsys.
  Use of this program is your acceptance to be bound by the
  license agreement. HSPICE is the trademark of Synopsys, Inc.
  Input File: nmos_l2.sp                                                        
  Command line options: -i nmos_l2.sp -o nmos_l2.lis
  lic:  
  lic: FLEXlm: v10.9.8 
  lic: USER:   hmr                  HOSTNAME: BF-201911211153 
  lic: HOSTID: "70c94e3215e4 0c9d922ee649 00ffaabbccdd 005056c00001 005056c00008
  70c94e31fa78 12c94e3
  lic: Using FLEXlm license file: 
  lic: D:\synopsys\Hspice_G-2012.06-SP1\license.dat 
  lic: Checkout 1 hspice 
  lic: License/Maintenance for hspice will expire on 31-dec-2019/2019.12 
  lic: NODE LOCKED license on hostid "70c94e3215e4 0c9d922ee649 00ffaabbccdd 005
 056c00001 005056c0000
  lic:   
 Init: read install configuration file: d:\synopsys\Hspice_G-2012.06-SP1\meta.cfg
1****** HSPICE -- G-2012.06-SP1 32-BIT (Aug 27 2012) win32 ******               
 ******  
 *sample netlist for gsmc

  ******  mos   model parameters tnom=  25.000 temp=  25.000 *****
 ***************************************************************************
 *** common model parameters  model name:   0:nfet     model type:nmos   ***
 ***************************************************************************
     names  values   units     names  values   units     names  values   units
     -----  ------   -----     -----  ------   -----     -----  ------   -----

   1*** geometry parameters ***
       ld=   0.    meters      lmlt=   1.00                wd=   0.    meters 
     wmlt=   1.00                xl=   0.    meters        xw=   0.    meters 
     lref=   0.    meters      wref=   0.    meters      lref=   0.    meters 
     wref=   0.    meters     xlref=   0.    meters     xwref=   0.    meters 
     lmin=   0.    meters      wmin=   0.    meters      lmax=   0.    meters 
     wmax=   0.    meters 

   2*** threshold voltage parameters ***
      vto= 400.00m volts        nss=   0.    1/cm**2      tpg=   1.00         
      phi= 816.47m volts      gamma=   1.06  v**0.5      bulk=  gnd           
    ngate=   0.    cm**3       nsub= 1.0e+17 1/cm**3   delvto=   0.    volts  

   3*** gate overlap capacitance parameters ***
     cgbo=   0.    f/meter     cgdo=   0.    f/meter     cgso=   0.    f/meter
     meto=   0.    meters 

   4*** gate capacitance parameters ***
    capop=   2.00               cf1=   0.    volts        cf2= 100.00m volts  
      cf3=   1.00  volts        cf4=  50.00               cf5= 666.67m        
      cf6= 500.00               xqc= 500.00m              tox=  20.00n meters 
      cox=   1.73m f/m**2 

   5*** diffusion parasitic parameters ***
      acm=   0.                  is=  10.00f amps          js=   0.    a/m**2 
      jsw=   0.    amp/m        nds=   1.00               cbd=   0.    farad  
      cbs=   0.    farad         cj=   1.02m f/m**2      cjsw=   0.    f/m    
   cjgate=   0.    f/m           mj= 500.00m             mjsw= 330.00m        
       pb= 800.00m volts        php= 800.00m volts         tt=   0.    secs   
     hdif=   0.    meters      ldif=   0.    meters        rd=   0.    ohms   
       rs=   0.    ohms         rsh=   0.    ohms/sq       fc=   0.           
    alpha=   0.                 vcr=   0.    volts      iirat=   0.           
      rdc=   0.    ohms         rsc=   0.    ohms           n=   1.00         
     vnds=  -1.00  volts  

   6*** temperature effect parameters ***
     tlev=   0.               tlevc=   0.                  eg=   1.11  ev     
     gap1= 702.00u ev/deg      gap2=   1.11k deg          xti=   0.           
      bex=  -1.50               tcv=   0.    v/deg k      trd=   0.    /deg   
      trs=   0.    /deg         cta=   0.    /deg         ctp=   0.    /deg   

   7*** noise parameters ***
       kf=   0.                  af=   1.00              nlev=   2.00         
   gdsnoi=   1.00         

   ***  level  2  model parameters  ***

    delta=   0.               ecrit=   0.    v/m       lambda=   0.    /v     
      nfs=   0.    1/cm**2    ucrit=  10.00k v/cm        uexp=   0.           
     utra=   0.                  uo=  50.04 cm**2/vs       xj=   0.    meters 
     neff=   1.00              vmax=   0.     m/sec        kp=   8.64u a/v**2 
      mob=-1.2e-29            deriv=   0.           
  

 **warning** the following singular supplies were terminated to 1 meg resistor 
   supply       node1            node2
  vdd                     0:vdd              defined in subckt 0                     0:0                defined in subckt 0               
      
 *****************************************************************
 ******  option summary
 ******
 runlvl  = 3         bypass  = 2         
 ******  
 *sample netlist for gsmc

  ******  dc transfer curves tnom=  25.000 temp=  25.000 *****

   *** source        0:vgs =    0.            ***

x

        volt    voltage      current    
                     d          mnmos   
    0.            0.           0.       
    0.10000       0.1000     2.010e-13  
    0.20000       0.2000     4.020e-13  
    0.30000       0.3000     6.030e-13  
    0.40000       0.4000     8.040e-13  
    0.50000       0.5000     1.005e-12  
    0.60000       0.6000     1.206e-12  
    0.70000       0.7000     1.407e-12  
    0.80000       0.8000     1.608e-12  
    0.90000       0.9000     1.809e-12  
    1.00000       1.0000     2.010e-12  
    1.10000       1.1000     2.211e-12  
    1.20000       1.2000     2.412e-12  
    1.30000       1.3000     2.613e-12  
    1.40000       1.4000     2.814e-12  
    1.50000       1.5000     3.015e-12  
    1.60000       1.6000     3.216e-12  
    1.70000       1.7000     3.417e-12  
    1.80000       1.8000     3.618e-12  
    1.90000       1.9000     3.819e-12  
    2.00000       2.0000     4.020e-12  
    2.10000       2.1000     4.221e-12  
    2.20000       2.2000     4.422e-12  
    2.30000       2.3000     4.623e-12  
    2.40000       2.4000     4.824e-12  
    2.50000       2.5000     5.025e-12  
    2.60000       2.6000     5.226e-12  
    2.70000       2.7000     5.427e-12  
    2.80000       2.8000     5.628e-12  
    2.90000       2.9000     5.829e-12  
    3.00000       3.0000     6.030e-12  
    3.10000       3.1000     6.231e-12  
    3.20000       3.2000     6.432e-12  
    3.30000       3.3000     6.633e-12  
    3.40000       3.4000     6.834e-12  
    3.50000       3.5000     7.035e-12  
    3.60000       3.6000     7.236e-12  
    3.70000       3.7000     7.437e-12  
    3.80000       3.8000     7.638e-12  
    3.90000       3.9000     7.839e-12  
    4.00000       4.0000     8.040e-12  
    4.10000       4.1000     8.241e-12  
    4.20000       4.2000     8.442e-12  
    4.30000       4.3000     8.643e-12  
    4.40000       4.4000     8.844e-12  
    4.50000       4.5000     9.045e-12  
    4.60000       4.6000     9.246e-12  
    4.70000       4.7000     9.447e-12  
    4.80000       4.8000     9.648e-12  
    4.90000       4.9000     9.849e-12  
    5.00000       5.0000     1.005e-11  
    5.10000       5.1000     1.025e-11  
    5.20000       5.2000     1.045e-11  
    5.30000       5.3000     1.065e-11  
    5.40000       5.4000     1.085e-11  
    5.50000       5.5000     1.105e-11  
    5.60000       5.6000     1.126e-11  
    5.70000       5.7000     1.146e-11  
    5.80000       5.8000     1.166e-11  
    5.90000       5.9000     1.186e-11  
    6.00000       6.0000     1.206e-11  
    6.10000       6.1000     1.226e-11  
    6.20000       6.2000     1.246e-11  
    6.30000       6.3000     1.266e-11  
    6.40000       6.4000     1.286e-11  
    6.50000       6.5000     1.307e-11  
    6.60000       6.6000     1.327e-11  
    6.70000       6.7000     1.347e-11  
    6.80000       6.8000     1.367e-11  
    6.90000       6.9000     1.387e-11  
    7.00000       7.0000     1.407e-11  
    7.10000       7.1000     1.427e-11  
    7.20000       7.2000     1.447e-11  
    7.30000       7.3000     1.467e-11  
    7.40000       7.4000     1.487e-11  
    7.50000       7.5000     1.507e-11  
    7.60000       7.6000     1.528e-11  
    7.70000       7.7000     1.548e-11  
    7.80000       7.8000     1.568e-11  
    7.90000       7.9000     1.588e-11  
    8.00000       8.0000     1.608e-11  
    8.10000       8.1000     1.628e-11  
    8.20000       8.2000     1.648e-11  
    8.30000       8.3000     1.668e-11  
    8.40000       8.4000     1.688e-11  
    8.50000       8.5000     1.708e-11  
    8.60000       8.6000     1.729e-11  
    8.70000       8.7000     1.749e-11  
    8.80000       8.8000     1.769e-11  
    8.90000       8.9000     1.789e-11  
    9.00000       9.0000     1.809e-11  
    9.10000       9.1000     1.829e-11  
    9.20000       9.2000     1.849e-11  
    9.30000       9.3000     1.869e-11  
    9.40000       9.4000     1.889e-11  
    9.50000       9.5000     1.910e-11  
    9.60000       9.6000     1.930e-11  
    9.70000       9.7000     1.950e-11  
    9.80000       9.8000     1.970e-11  
    9.90000       9.9000     1.990e-11  
   10.00000      10.0000     2.010e-11  
y
-----------------------------------------------
 ******  
 *sample netlist for gsmc

  ******  dc transfer curves tnom=  25.000 temp=  25.000 *****

   *** source        0:vgs =    1.0000        ***

x

        volt    voltage      current    
                     d          mnmos   
    0.            0.           0.       
    0.10000       0.1000     2.294e-06  
    0.20000       0.2000     3.907e-06  
    0.30000       0.3000     4.849e-06  
    0.40000       0.4000     5.133e-06  
    0.50000       0.5000     5.134e-06  
    0.60000       0.6000     5.136e-06  
    0.70000       0.7000     5.137e-06  
    0.80000       0.8000     5.138e-06  
    0.90000       0.9000     5.140e-06  
    1.00000       1.0000     5.141e-06  
    1.10000       1.1000     5.142e-06  
    1.20000       1.2000     5.144e-06  
    1.30000       1.3000     5.145e-06  
    1.40000       1.4000     5.146e-06  
    1.50000       1.5000     5.148e-06  
    1.60000       1.6000     5.149e-06  
    1.70000       1.7000     5.150e-06  
    1.80000       1.8000     5.152e-06  
    1.90000       1.9000     5.153e-06  
    2.00000       2.0000     5.155e-06  
    2.10000       2.1000     5.156e-06  
    2.20000       2.2000     5.157e-06  
    2.30000       2.3000     5.159e-06  
    2.40000       2.4000     5.160e-06  
    2.50000       2.5000     5.162e-06  
    2.60000       2.6000     5.163e-06  
    2.70000       2.7000     5.165e-06  
    2.80000       2.8000     5.166e-06  
    2.90000       2.9000     5.167e-06  
    3.00000       3.0000     5.169e-06  
    3.10000       3.1000     5.170e-06  
    3.20000       3.2000     5.172e-06  
    3.30000       3.3000     5.173e-06  
    3.40000       3.4000     5.175e-06  
    3.50000       3.5000     5.176e-06  
    3.60000       3.6000     5.177e-06  
    3.70000       3.7000     5.179e-06  
    3.80000       3.8000     5.180e-06  
    3.90000       3.9000     5.182e-06  
    4.00000       4.0000     5.183e-06  
    4.10000       4.1000     5.185e-06  
    4.20000       4.2000     5.186e-06  
    4.30000       4.3000     5.187e-06  
    4.40000       4.4000     5.189e-06  
    4.50000       4.5000     5.190e-06  
    4.60000       4.6000     5.192e-06  
    4.70000       4.7000     5.193e-06  
    4.80000       4.8000     5.194e-06  
    4.90000       4.9000     5.196e-06  
    5.00000       5.0000     5.197e-06  
    5.10000       5.1000     5.198e-06  
    5.20000       5.2000     5.200e-06  
    5.30000       5.3000     5.201e-06  
    5.40000       5.4000     5.202e-06  
    5.50000       5.5000     5.204e-06  
    5.60000       5.6000     5.205e-06  
    5.70000       5.7000     5.206e-06  
    5.80000       5.8000     5.208e-06  
    5.90000       5.9000     5.209e-06  
    6.00000       6.0000     5.210e-06  
    6.10000       6.1000     5.212e-06  
    6.20000       6.2000     5.213e-06  
    6.30000       6.3000     5.214e-06  
    6.40000       6.4000     5.216e-06  
    6.50000       6.5000     5.217e-06  
    6.60000       6.6000     5.218e-06  
    6.70000       6.7000     5.219e-06  
    6.80000       6.8000     5.221e-06  
    6.90000       6.9000     5.222e-06  
    7.00000       7.0000     5.223e-06  
    7.10000       7.1000     5.224e-06  
    7.20000       7.2000     5.226e-06  
    7.30000       7.3000     5.227e-06  
    7.40000       7.4000     5.228e-06  
    7.50000       7.5000     5.229e-06  
    7.60000       7.6000     5.231e-06  
    7.70000       7.7000     5.232e-06  
    7.80000       7.8000     5.233e-06  
    7.90000       7.9000     5.234e-06  
    8.00000       8.0000     5.236e-06  
    8.10000       8.1000     5.237e-06  
    8.20000       8.2000     5.238e-06  
    8.30000       8.3000     5.239e-06  
    8.40000       8.4000     5.240e-06  
    8.50000       8.5000     5.242e-06  
    8.60000       8.6000     5.243e-06  
    8.70000       8.7000     5.244e-06  
    8.80000       8.8000     5.245e-06  
    8.90000       8.9000     5.246e-06  
    9.00000       9.0000     5.247e-06  
    9.10000       9.1000     5.249e-06  
    9.20000       9.2000     5.250e-06  
    9.30000       9.3000     5.251e-06  
    9.40000       9.4000     5.252e-06  
    9.50000       9.5000     5.253e-06  
    9.60000       9.6000     5.254e-06  
    9.70000       9.7000     5.255e-06  
    9.80000       9.8000     5.257e-06  
    9.90000       9.9000     5.258e-06  
   10.00000      10.0000     5.259e-06  
y
-----------------------------------------------
 ******  
 *sample netlist for gsmc

  ******  dc transfer curves tnom=  25.000 temp=  25.000 *****

   *** source        0:vgs =    2.0000        ***

x

        volt    voltage      current    
                     d          mnmos   
    0.            0.           0.       
    0.10000       0.1000     6.684e-06  
    0.20000       0.2000     1.269e-05  
    0.30000       0.3000     1.803e-05  
    0.40000       0.4000     2.271e-05  
    0.50000       0.5000     2.674e-05  
    0.60000       0.6000     3.014e-05  
    0.70000       0.7000     3.289e-05  
    0.80000       0.8000     3.503e-05  
    0.90000       0.9000     3.654e-05  
    1.00000       1.0000     3.743e-05  
    1.10000       1.1000     3.771e-05  
    1.20000       1.2000     3.772e-05  
    1.30000       1.3000     3.773e-05  
    1.40000       1.4000     3.774e-05  
    1.50000       1.5000     3.775e-05  
    1.60000       1.6000     3.776e-05  
    1.70000       1.7000     3.777e-05  
    1.80000       1.8000     3.778e-05  
    1.90000       1.9000     3.779e-05  
    2.00000       2.0000     3.780e-05  
    2.10000       2.1000     3.781e-05  
    2.20000       2.2000     3.782e-05  
    2.30000       2.3000     3.783e-05  
    2.40000       2.4000     3.784e-05  
    2.50000       2.5000     3.785e-05  
    2.60000       2.6000     3.786e-05  
    2.70000       2.7000     3.787e-05  
    2.80000       2.8000     3.788e-05  
    2.90000       2.9000     3.789e-05  
    3.00000       3.0000     3.790e-05  
    3.10000       3.1000     3.791e-05  
    3.20000       3.2000     3.792e-05  
    3.30000       3.3000     3.793e-05  
    3.40000       3.4000     3.794e-05  
    3.50000       3.5000     3.795e-05  
    3.60000       3.6000     3.797e-05  
    3.70000       3.7000     3.798e-05  
    3.80000       3.8000     3.799e-05  
    3.90000       3.9000     3.800e-05  
    4.00000       4.0000     3.801e-05  
    4.10000       4.1000     3.802e-05  
    4.20000       4.2000     3.803e-05  
    4.30000       4.3000     3.804e-05  
    4.40000       4.4000     3.805e-05  
    4.50000       4.5000     3.806e-05  
    4.60000       4.6000     3.807e-05  
    4.70000       4.7000     3.808e-05  
    4.80000       4.8000     3.809e-05  
    4.90000       4.9000     3.810e-05  
    5.00000       5.0000     3.811e-05  
    5.10000       5.1000     3.812e-05  
    5.20000       5.2000     3.813e-05  
    5.30000       5.3000     3.814e-05  
    5.40000       5.4000     3.815e-05  
    5.50000       5.5000     3.816e-05  
    5.60000       5.6000     3.817e-05  
    5.70000       5.7000     3.818e-05  
    5.80000       5.8000     3.819e-05  
    5.90000       5.9000     3.820e-05  
    6.00000       6.0000     3.821e-05  
    6.10000       6.1000     3.822e-05  
    6.20000       6.2000     3.823e-05  
    6.30000       6.3000     3.824e-05  
    6.40000       6.4000     3.825e-05  
    6.50000       6.5000     3.826e-05  
    6.60000       6.6000     3.827e-05  
    6.70000       6.7000     3.828e-05  
    6.80000       6.8000     3.829e-05  
    6.90000       6.9000     3.830e-05  
    7.00000       7.0000     3.831e-05  
    7.10000       7.1000     3.832e-05  
    7.20000       7.2000     3.833e-05  
    7.30000       7.3000     3.834e-05  
    7.40000       7.4000     3.835e-05  
    7.50000       7.5000     3.836e-05  
    7.60000       7.6000     3.837e-05  
    7.70000       7.7000     3.837e-05  
    7.80000       7.8000     3.838e-05  
    7.90000       7.9000     3.839e-05  
    8.00000       8.0000     3.840e-05  
    8.10000       8.1000     3.841e-05  
    8.20000       8.2000     3.842e-05  
    8.30000       8.3000     3.843e-05  
    8.40000       8.4000     3.844e-05  
    8.50000       8.5000     3.845e-05  
    8.60000       8.6000     3.846e-05  
    8.70000       8.7000     3.847e-05  
    8.80000       8.8000     3.847e-05  
    8.90000       8.9000     3.848e-05  
    9.00000       9.0000     3.849e-05  
    9.10000       9.1000     3.850e-05  
    9.20000       9.2000     3.851e-05  
    9.30000       9.3000     3.852e-05  
    9.40000       9.4000     3.853e-05  
    9.50000       9.5000     3.854e-05  
    9.60000       9.6000     3.854e-05  
    9.70000       9.7000     3.855e-05  
    9.80000       9.8000     3.856e-05  
    9.90000       9.9000     3.857e-05  
   10.00000      10.0000     3.858e-05  
y
-----------------------------------------------
 ******  
 *sample netlist for gsmc

  ******  dc transfer curves tnom=  25.000 temp=  25.000 *****

   *** source        0:vgs =    3.0000        ***

x

        volt    voltage      current    
                     d          mnmos   
    0.            0.           0.       
    0.10000       0.1000     1.106e-05  
    0.20000       0.2000     2.145e-05  
    0.30000       0.3000     3.117e-05  
    0.40000       0.4000     4.023e-05  
    0.50000       0.5000     4.865e-05  
    0.60000       0.6000     5.644e-05  
    0.70000       0.7000     6.359e-05  
    0.80000       0.8000     7.012e-05  
    0.90000       0.9000     7.602e-05  
    1.00000       1.0000     8.132e-05  
    1.10000       1.1000     8.600e-05  
    1.20000       1.2000     9.009e-05  
    1.30000       1.3000     9.356e-05  
    1.40000       1.4000     9.645e-05  
    1.50000       1.5000     9.873e-05  
    1.60000       1.6000     1.004e-04  
    1.70000       1.7000     1.015e-04  
    1.80000       1.8000     1.021e-04  
    1.90000       1.9000     1.021e-04  
    2.00000       2.0000     1.021e-04  
    2.10000       2.1000     1.022e-04  
    2.20000       2.2000     1.022e-04  
    2.30000       2.3000     1.022e-04  
    2.40000       2.4000     1.022e-04  
    2.50000       2.5000     1.023e-04  
    2.60000       2.6000     1.023e-04  
    2.70000       2.7000     1.023e-04  
    2.80000       2.8000     1.024e-04  
    2.90000       2.9000     1.024e-04  
    3.00000       3.0000     1.024e-04  
    3.10000       3.1000     1.024e-04  
    3.20000       3.2000     1.025e-04  
    3.30000       3.3000     1.025e-04  
    3.40000       3.4000     1.025e-04  
    3.50000       3.5000     1.025e-04  
    3.60000       3.6000     1.026e-04  
    3.70000       3.7000     1.026e-04  
    3.80000       3.8000     1.026e-04  
    3.90000       3.9000     1.027e-04  
    4.00000       4.0000     1.027e-04  
    4.10000       4.1000     1.027e-04  
    4.20000       4.2000     1.027e-04  
    4.30000       4.3000     1.028e-04  
    4.40000       4.4000     1.028e-04  
    4.50000       4.5000     1.028e-04  
    4.60000       4.6000     1.029e-04  
    4.70000       4.7000     1.029e-04  
    4.80000       4.8000     1.029e-04  
    4.90000       4.9000     1.029e-04  
    5.00000       5.0000     1.030e-04  
    5.10000       5.1000     1.030e-04  
    5.20000       5.2000     1.030e-04  
    5.30000       5.3000     1.031e-04  
    5.40000       5.4000     1.031e-04  
    5.50000       5.5000     1.031e-04  
    5.60000       5.6000     1.031e-04  
    5.70000       5.7000     1.032e-04  
    5.80000       5.8000     1.032e-04  
    5.90000       5.9000     1.032e-04  
    6.00000       6.0000     1.033e-04  
    6.10000       6.1000     1.033e-04  
    6.20000       6.2000     1.033e-04  
    6.30000       6.3000     1.033e-04  
    6.40000       6.4000     1.034e-04  
    6.50000       6.5000     1.034e-04  
    6.60000       6.6000     1.034e-04  
    6.70000       6.7000     1.034e-04  
    6.80000       6.8000     1.035e-04  
    6.90000       6.9000     1.035e-04  
    7.00000       7.0000     1.035e-04  
    7.10000       7.1000     1.036e-04  
    7.20000       7.2000     1.036e-04  
    7.30000       7.3000     1.036e-04  
    7.40000       7.4000     1.036e-04  
    7.50000       7.5000     1.037e-04  
    7.60000       7.6000     1.037e-04  
    7.70000       7.7000     1.037e-04  
    7.80000       7.8000     1.037e-04  
    7.90000       7.9000     1.038e-04  
    8.00000       8.0000     1.038e-04  
    8.10000       8.1000     1.038e-04  
    8.20000       8.2000     1.038e-04  
    8.30000       8.3000     1.039e-04  
    8.40000       8.4000     1.039e-04  
    8.50000       8.5000     1.039e-04  
    8.60000       8.6000     1.039e-04  
    8.70000       8.7000     1.040e-04  
    8.80000       8.8000     1.040e-04  
    8.90000       8.9000     1.040e-04  
    9.00000       9.0000     1.040e-04  
    9.10000       9.1000     1.041e-04  
    9.20000       9.2000     1.041e-04  
    9.30000       9.3000     1.041e-04  
    9.40000       9.4000     1.041e-04  
    9.50000       9.5000     1.042e-04  
    9.60000       9.6000     1.042e-04  
    9.70000       9.7000     1.042e-04  
    9.80000       9.8000     1.042e-04  
    9.90000       9.9000     1.043e-04  
   10.00000      10.0000     1.043e-04  
y
-----------------------------------------------
 ******  
 *sample netlist for gsmc

  ******  dc transfer curves tnom=  25.000 temp=  25.000 *****

   *** source        0:vgs =    4.0000        ***

x

        volt    voltage      current    
                     d          mnmos   
    0.            0.           0.       
    0.10000       0.1000     1.543e-05  
    0.20000       0.2000     3.018e-05  
    0.30000       0.3000     4.428e-05  
    0.40000       0.4000     5.772e-05  
    0.50000       0.5000     7.051e-05  
    0.60000       0.6000     8.267e-05  
    0.70000       0.7000     9.420e-05  
    0.80000       0.8000     1.051e-04  
    0.90000       0.9000     1.154e-04  
    1.00000       1.0000     1.251e-04  
    1.10000       1.1000     1.342e-04  
    1.20000       1.2000     1.426e-04  
    1.30000       1.3000     1.505e-04  
    1.40000       1.4000     1.578e-04  
    1.50000       1.5000     1.645e-04  
    1.60000       1.6000     1.706e-04  
    1.70000       1.7000     1.761e-04  
    1.80000       1.8000     1.810e-04  
    1.90000       1.9000     1.853e-04  
    2.00000       2.0000     1.891e-04  
    2.10000       2.1000     1.923e-04  
    2.20000       2.2000     1.949e-04  
    2.30000       2.3000     1.970e-04  
    2.40000       2.4000     1.985e-04  
    2.50000       2.5000     1.994e-04  
    2.60000       2.6000     1.997e-04  
    2.70000       2.7000     1.998e-04  
    2.80000       2.8000     1.998e-04  
    2.90000       2.9000     1.999e-04  
    3.00000       3.0000     1.999e-04  
    3.10000       3.1000     2.000e-04  
    3.20000       3.2000     2.000e-04  
    3.30000       3.3000     2.001e-04  
    3.40000       3.4000     2.001e-04  
    3.50000       3.5000     2.002e-04  
    3.60000       3.6000     2.002e-04  
    3.70000       3.7000     2.003e-04  
    3.80000       3.8000     2.003e-04  
    3.90000       3.9000     2.004e-04  
    4.00000       4.0000     2.004e-04  
    4.10000       4.1000     2.005e-04  
    4.20000       4.2000     2.006e-04  
    4.30000       4.3000     2.006e-04  
    4.40000       4.4000     2.007e-04  
    4.50000       4.5000     2.007e-04  
    4.60000       4.6000     2.008e-04  
    4.70000       4.7000     2.008e-04  
    4.80000       4.8000     2.009e-04  
    4.90000       4.9000     2.009e-04  
    5.00000       5.0000     2.010e-04  
    5.10000       5.1000     2.011e-04  
    5.20000       5.2000     2.011e-04  
    5.30000       5.3000     2.012e-04  
    5.40000       5.4000     2.012e-04  
    5.50000       5.5000     2.013e-04  
    5.60000       5.6000     2.013e-04  
    5.70000       5.7000     2.014e-04  
    5.80000       5.8000     2.014e-04  
    5.90000       5.9000     2.015e-04  
    6.00000       6.0000     2.016e-04  
    6.10000       6.1000     2.016e-04  
    6.20000       6.2000     2.017e-04  
    6.30000       6.3000     2.017e-04  
    6.40000       6.4000     2.018e-04  
    6.50000       6.5000     2.018e-04  
    6.60000       6.6000     2.019e-04  
    6.70000       6.7000     2.019e-04  
    6.80000       6.8000     2.020e-04  
    6.90000       6.9000     2.020e-04  
    7.00000       7.0000     2.021e-04  
    7.10000       7.1000     2.022e-04  
    7.20000       7.2000     2.022e-04  
    7.30000       7.3000     2.023e-04  
    7.40000       7.4000     2.023e-04  
    7.50000       7.5000     2.024e-04  
    7.60000       7.6000     2.024e-04  
    7.70000       7.7000     2.025e-04  
    7.80000       7.8000     2.025e-04  
    7.90000       7.9000     2.026e-04  
    8.00000       8.0000     2.026e-04  
    8.10000       8.1000     2.027e-04  
    8.20000       8.2000     2.027e-04  
    8.30000       8.3000     2.028e-04  
    8.40000       8.4000     2.028e-04  
    8.50000       8.5000     2.029e-04  
    8.60000       8.6000     2.029e-04  
    8.70000       8.7000     2.030e-04  
    8.80000       8.8000     2.030e-04  
    8.90000       8.9000     2.031e-04  
    9.00000       9.0000     2.031e-04  
    9.10000       9.1000     2.032e-04  
    9.20000       9.2000     2.032e-04  
    9.30000       9.3000     2.033e-04  
    9.40000       9.4000     2.033e-04  
    9.50000       9.5000     2.034e-04  
    9.60000       9.6000     2.034e-04  
    9.70000       9.7000     2.035e-04  
    9.80000       9.8000     2.035e-04  
    9.90000       9.9000     2.036e-04  
   10.00000      10.0000     2.036e-04  
y
-----------------------------------------------
 ******  
 *sample netlist for gsmc

  ******  dc transfer curves tnom=  25.000 temp=  25.000 *****

   *** source        0:vgs =    5.0000        ***

x

        volt    voltage      current    
                     d          mnmos   
    0.            0.           0.       
    0.10000       0.1000     1.979e-05  
    0.20000       0.2000     3.891e-05  
    0.30000       0.3000     5.736e-05  
    0.40000       0.4000     7.516e-05  
    0.50000       0.5000     9.232e-05  
    0.60000       0.6000     1.088e-04  
    0.70000       0.7000     1.247e-04  
    0.80000       0.8000     1.400e-04  
    0.90000       0.9000     1.547e-04  
    1.00000       1.0000     1.687e-04  
    1.10000       1.1000     1.822e-04  
    1.20000       1.2000     1.950e-04  
    1.30000       1.3000     2.073e-04  
    1.40000       1.4000     2.189e-04  
    1.50000       1.5000     2.300e-04  
    1.60000       1.6000     2.405e-04  
    1.70000       1.7000     2.504e-04  
    1.80000       1.8000     2.597e-04  
    1.90000       1.9000     2.685e-04  
    2.00000       2.0000     2.766e-04  
    2.10000       2.1000     2.842e-04  
    2.20000       2.2000     2.912e-04  
    2.30000       2.3000     2.977e-04  
    2.40000       2.4000     3.036e-04  
    2.50000       2.5000     3.089e-04  
    2.60000       2.6000     3.136e-04  
    2.70000       2.7000     3.178e-04  
    2.80000       2.8000     3.215e-04  
    2.90000       2.9000     3.246e-04  
    3.00000       3.0000     3.271e-04  
    3.10000       3.1000     3.290e-04  
    3.20000       3.2000     3.304e-04  
    3.30000       3.3000     3.313e-04  
    3.40000       3.4000     3.316e-04  
    3.50000       3.5000     3.317e-04  
    3.60000       3.6000     3.318e-04  
    3.70000       3.7000     3.318e-04  
    3.80000       3.8000     3.319e-04  
    3.90000       3.9000     3.320e-04  
    4.00000       4.0000     3.321e-04  
    4.10000       4.1000     3.322e-04  
    4.20000       4.2000     3.323e-04  
    4.30000       4.3000     3.323e-04  
    4.40000       4.4000     3.324e-04  
    4.50000       4.5000     3.325e-04  
    4.60000       4.6000     3.326e-04  
    4.70000       4.7000     3.327e-04  
    4.80000       4.8000     3.328e-04  
    4.90000       4.9000     3.329e-04  
    5.00000       5.0000     3.330e-04  
    5.10000       5.1000     3.331e-04  
    5.20000       5.2000     3.332e-04  
    5.30000       5.3000     3.333e-04  
    5.40000       5.4000     3.333e-04  
    5.50000       5.5000     3.334e-04  
    5.60000       5.6000     3.335e-04  
    5.70000       5.7000     3.336e-04  
    5.80000       5.8000     3.337e-04  
    5.90000       5.9000     3.338e-04  
    6.00000       6.0000     3.339e-04  
    6.10000       6.1000     3.340e-04  
    6.20000       6.2000     3.341e-04  
    6.30000       6.3000     3.342e-04  
    6.40000       6.4000     3.343e-04  
    6.50000       6.5000     3.344e-04  
    6.60000       6.6000     3.345e-04  
    6.70000       6.7000     3.345e-04  
    6.80000       6.8000     3.346e-04  
    6.90000       6.9000     3.347e-04  
    7.00000       7.0000     3.348e-04  
    7.10000       7.1000     3.349e-04  
    7.20000       7.2000     3.350e-04  
    7.30000       7.3000     3.351e-04  
    7.40000       7.4000     3.352e-04  
    7.50000       7.5000     3.353e-04  
    7.60000       7.6000     3.354e-04  
    7.70000       7.7000     3.354e-04  
    7.80000       7.8000     3.355e-04  
    7.90000       7.9000     3.356e-04  
    8.00000       8.0000     3.357e-04  
    8.10000       8.1000     3.358e-04  
    8.20000       8.2000     3.359e-04  
    8.30000       8.3000     3.360e-04  
    8.40000       8.4000     3.361e-04  
    8.50000       8.5000     3.361e-04  
    8.60000       8.6000     3.362e-04  
    8.70000       8.7000     3.363e-04  
    8.80000       8.8000     3.364e-04  
    8.90000       8.9000     3.365e-04  
    9.00000       9.0000     3.366e-04  
    9.10000       9.1000     3.367e-04  
    9.20000       9.2000     3.367e-04  
    9.30000       9.3000     3.368e-04  
    9.40000       9.4000     3.369e-04  
    9.50000       9.5000     3.370e-04  
    9.60000       9.6000     3.371e-04  
    9.70000       9.7000     3.372e-04  
    9.80000       9.8000     3.372e-04  
    9.90000       9.9000     3.373e-04  
   10.00000      10.0000     3.374e-04  
y
-----------------------------------------------

          ***** job concluded
1****** HSPICE -- G-2012.06-SP1 32-BIT (Aug 27 2012) win32 ******               
 ******  
 *sample netlist for gsmc

  ******  job statistics summary tnom=  25.000 temp=  25.000 *****

  ******  HSPICE Threads Information  ******

  Command Line Threads Count :     1
  Available CPU Count        :     8
  Actual Threads Count       :     1


  ******  Circuit Statistics  ******
  # nodes       =       5 # elements   =       6
  # resistors   =       1 # capacitors =       0 # inductors   =       0
  # mutual_inds =       0 # vccs       =       0 # vcvs        =       0
  # cccs        =       0 # ccvs       =       0 # volt_srcs   =       4
  # curr_srcs   =       0 # diodes     =       0 # bjts        =       0
  # jfets       =       0 # mosfets    =       1 # U elements  =       0
  # T elements  =       0 # W elements =       0 # B elements  =       0
  # S elements  =       0 # P elements =       0 # va device   =       0
  # vector_srcs =       0 # N elements =       0


  ******  Runtime Statistics (seconds)  ******

  analysis           time    # points   tot. iter  conv.iter
  op point           0.00           1           0
  dc sweep           0.09         606        1218
  readin             0.11
  errchk             0.02
  setup              0.02
  output             0.00


           peak memory used         49.50 megabytes
           total cpu time            0.39 seconds
           total elapsed time        0.53 seconds
           job started at     21:45:00 11/13/2008
           job ended   at     21:45:01 11/13/2008


  lic: Release hspice token(s) 
 lic: total license checkout elapse time:        0.11(s)
