 ****** HSPICE -- G-2012.06-SP1 32-BIT (Aug 27 2012) win32 ******               
  Copyright (C) 2012 Synopsys, Inc. All Rights Reserved.                        
  Unpublished-rights reserved under US copyright laws.
  This program is protected by law and is subject to the
  terms and conditions of the license agreement from Synopsys.
  Use of this program is your acceptance to be bound by the
  license agreement. HSPICE is the trademark of Synopsys, Inc.
  Input File: noms_l1.sp                                                        
  Command line options: -i noms_l1.sp -o noms_l1.lis
  lic:  
  lic: FLEXlm: v10.9.8 
  lic: USER:   hmr                  HOSTNAME: BF-201911211153 
  lic: HOSTID: "70c94e3215e4 0c9d922ee649 00ffaabbccdd 005056c00001 005056c00008
  70c94e31fa78 12c94e3
  lic: Using FLEXlm license file: 
  lic: D:\synopsys\Hspice_G-2012.06-SP1\license.dat 
  lic: Checkout 1 hspice 
  lic: License/Maintenance for hspice will expire on 31-dec-2019/2019.12 
  lic: NODE LOCKED license on hostid "70c94e3215e4 0c9d922ee649 00ffaabbccdd 005
 056c00001 005056c0000
  lic:   
 Init: read install configuration file: d:\synopsys\Hspice_G-2012.06-SP1\meta.cfg
1****** HSPICE -- G-2012.06-SP1 32-BIT (Aug 27 2012) win32 ******               
 ******  
 *sample netlist for gsmc

  ******  mos   model parameters tnom=  25.000 temp=  25.000 *****
 ***************************************************************************
 *** common model parameters  model name:   0:nfet     model type:nmos   ***
 ***************************************************************************
     names  values   units     names  values   units     names  values   units
     -----  ------   -----     -----  ------   -----     -----  ------   -----

   1*** geometry parameters ***
       ld=   0.    meters      lmlt=   1.00                wd=   0.    meters 
     wmlt=   1.00                xl=   0.    meters        xw=   0.    meters 
     lref=   0.    meters      wref=   0.    meters      lref=   0.    meters 
     wref=   0.    meters     xlref=   0.    meters     xwref=   0.    meters 
     lmin=   0.    meters      wmin=   0.    meters      lmax=   0.    meters 
     wmax=   0.    meters 

   2*** threshold voltage parameters ***
      vto= 400.00m volts        nss=   0.    1/cm**2      tpg=   1.00         
      phi= 816.47m volts      gamma=   1.06  v**0.5      bulk=  gnd           
    ngate=   0.    cm**3       nsub= 1.0e+17 1/cm**3   delvto=   0.    volts  

   3*** gate overlap capacitance parameters ***
     cgbo=   0.    f/meter     cgdo=   0.    f/meter     cgso=   0.    f/meter
     meto=   0.    meters 

   4*** gate capacitance parameters ***
    capop=   2.00               cf1=   0.    volts        cf2= 100.00m volts  
      cf3=   1.00  volts        cf4=  50.00               cf5= 666.67m        
      cf6= 500.00               xqc= 500.00m              tox=  20.00n meters 
      cox=   1.73m f/m**2 

   5*** diffusion parasitic parameters ***
      acm=   0.                  is=  10.00f amps          js=   0.    a/m**2 
      jsw=   0.    amp/m        nds=   1.00               cbd=   0.    farad  
      cbs=   0.    farad         cj=   1.02m f/m**2      cjsw=   0.    f/m    
   cjgate=   0.    f/m           mj= 500.00m             mjsw= 330.00m        
       pb= 800.00m volts        php= 800.00m volts         tt=   0.    secs   
     hdif=   0.    meters      ldif=   0.    meters        rd=   0.    ohms   
       rs=   0.    ohms         rsh=   0.    ohms/sq       fc=   0.           
    alpha=   0.                 vcr=   0.    volts      iirat=   0.           
      rdc=   0.    ohms         rsc=   0.    ohms           n=   1.00         
     vnds=  -1.00  volts  

   6*** temperature effect parameters ***
     tlev=   0.               tlevc=   0.                  eg=   1.11  ev     
     gap1= 702.00u ev/deg      gap2=   1.11k deg          xti=   0.           
      bex=  -1.50               tcv=   0.    v/deg k      trd=   0.    /deg   
      trs=   0.    /deg         cta=   0.    /deg         ctp=   0.    /deg   

   7*** noise parameters ***
       kf=   0.                  af=   1.00              nlev=   2.00         
   gdsnoi=   1.00         

   ***  level  1  model parameters  ***

   lambda=   0.    /v            kp=   8.64u a/v**2 
  

 **warning** the following singular supplies were terminated to 1 meg resistor 
   supply       node1            node2
  vdd                     0:vdd              defined in subckt 0                     0:0                defined in subckt 0               
      
 *****************************************************************
 ******  option summary
 ******
 runlvl  = 3         bypass  = 2         
 ******  
 *sample netlist for gsmc

  ******  dc transfer curves tnom=  25.000 temp=  25.000 *****

   *** source        0:vgs =    0.            ***

x

        volt    voltage      current    
                     d          mnmos   
    0.            0.           0.       
    0.10000       0.1000     2.010e-13  
    0.20000       0.2000     4.020e-13  
    0.30000       0.3000     6.030e-13  
    0.40000       0.4000     8.040e-13  
    0.50000       0.5000     1.005e-12  
    0.60000       0.6000     1.206e-12  
    0.70000       0.7000     1.407e-12  
    0.80000       0.8000     1.608e-12  
    0.90000       0.9000     1.809e-12  
    1.00000       1.0000     2.010e-12  
    1.10000       1.1000     2.211e-12  
    1.20000       1.2000     2.412e-12  
    1.30000       1.3000     2.613e-12  
    1.40000       1.4000     2.814e-12  
    1.50000       1.5000     3.015e-12  
    1.60000       1.6000     3.216e-12  
    1.70000       1.7000     3.417e-12  
    1.80000       1.8000     3.618e-12  
    1.90000       1.9000     3.819e-12  
    2.00000       2.0000     4.020e-12  
    2.10000       2.1000     4.221e-12  
    2.20000       2.2000     4.422e-12  
    2.30000       2.3000     4.623e-12  
    2.40000       2.4000     4.824e-12  
    2.50000       2.5000     5.025e-12  
    2.60000       2.6000     5.226e-12  
    2.70000       2.7000     5.427e-12  
    2.80000       2.8000     5.628e-12  
    2.90000       2.9000     5.829e-12  
    3.00000       3.0000     6.030e-12  
    3.10000       3.1000     6.231e-12  
    3.20000       3.2000     6.432e-12  
    3.30000       3.3000     6.633e-12  
    3.40000       3.4000     6.834e-12  
    3.50000       3.5000     7.035e-12  
    3.60000       3.6000     7.236e-12  
    3.70000       3.7000     7.437e-12  
    3.80000       3.8000     7.638e-12  
    3.90000       3.9000     7.839e-12  
    4.00000       4.0000     8.040e-12  
    4.10000       4.1000     8.241e-12  
    4.20000       4.2000     8.442e-12  
    4.30000       4.3000     8.643e-12  
    4.40000       4.4000     8.844e-12  
    4.50000       4.5000     9.045e-12  
    4.60000       4.6000     9.246e-12  
    4.70000       4.7000     9.447e-12  
    4.80000       4.8000     9.648e-12  
    4.90000       4.9000     9.849e-12  
    5.00000       5.0000     1.005e-11  
    5.10000       5.1000     1.025e-11  
    5.20000       5.2000     1.045e-11  
    5.30000       5.3000     1.065e-11  
    5.40000       5.4000     1.085e-11  
    5.50000       5.5000     1.105e-11  
    5.60000       5.6000     1.126e-11  
    5.70000       5.7000     1.146e-11  
    5.80000       5.8000     1.166e-11  
    5.90000       5.9000     1.186e-11  
    6.00000       6.0000     1.206e-11  
    6.10000       6.1000     1.226e-11  
    6.20000       6.2000     1.246e-11  
    6.30000       6.3000     1.266e-11  
    6.40000       6.4000     1.286e-11  
    6.50000       6.5000     1.307e-11  
    6.60000       6.6000     1.327e-11  
    6.70000       6.7000     1.347e-11  
    6.80000       6.8000     1.367e-11  
    6.90000       6.9000     1.387e-11  
    7.00000       7.0000     1.407e-11  
    7.10000       7.1000     1.427e-11  
    7.20000       7.2000     1.447e-11  
    7.30000       7.3000     1.467e-11  
    7.40000       7.4000     1.487e-11  
    7.50000       7.5000     1.507e-11  
    7.60000       7.6000     1.528e-11  
    7.70000       7.7000     1.548e-11  
    7.80000       7.8000     1.568e-11  
    7.90000       7.9000     1.588e-11  
    8.00000       8.0000     1.608e-11  
    8.10000       8.1000     1.628e-11  
    8.20000       8.2000     1.648e-11  
    8.30000       8.3000     1.668e-11  
    8.40000       8.4000     1.688e-11  
    8.50000       8.5000     1.708e-11  
    8.60000       8.6000     1.729e-11  
    8.70000       8.7000     1.749e-11  
    8.80000       8.8000     1.769e-11  
    8.90000       8.9000     1.789e-11  
    9.00000       9.0000     1.809e-11  
    9.10000       9.1000     1.829e-11  
    9.20000       9.2000     1.849e-11  
    9.30000       9.3000     1.869e-11  
    9.40000       9.4000     1.889e-11  
    9.50000       9.5000     1.910e-11  
    9.60000       9.6000     1.930e-11  
    9.70000       9.7000     1.950e-11  
    9.80000       9.8000     1.970e-11  
    9.90000       9.9000     1.990e-11  
   10.00000      10.0000     2.010e-11  
y
-----------------------------------------------
 ******  
 *sample netlist for gsmc

  ******  dc transfer curves tnom=  25.000 temp=  25.000 *****

   *** source        0:vgs =    1.0000        ***

x

        volt    voltage      current    
                     d          mnmos   
    0.            0.           0.       
    0.10000       0.1000     2.376e-06  
    0.20000       0.2000     4.320e-06  
    0.30000       0.3000     5.832e-06  
    0.40000       0.4000     6.912e-06  
    0.50000       0.5000     7.560e-06  
    0.60000       0.6000     7.776e-06  
    0.70000       0.7000     7.776e-06  
    0.80000       0.8000     7.776e-06  
    0.90000       0.9000     7.776e-06  
    1.00000       1.0000     7.776e-06  
    1.10000       1.1000     7.776e-06  
    1.20000       1.2000     7.776e-06  
    1.30000       1.3000     7.776e-06  
    1.40000       1.4000     7.776e-06  
    1.50000       1.5000     7.776e-06  
    1.60000       1.6000     7.776e-06  
    1.70000       1.7000     7.776e-06  
    1.80000       1.8000     7.776e-06  
    1.90000       1.9000     7.776e-06  
    2.00000       2.0000     7.776e-06  
    2.10000       2.1000     7.776e-06  
    2.20000       2.2000     7.776e-06  
    2.30000       2.3000     7.776e-06  
    2.40000       2.4000     7.776e-06  
    2.50000       2.5000     7.776e-06  
    2.60000       2.6000     7.776e-06  
    2.70000       2.7000     7.776e-06  
    2.80000       2.8000     7.776e-06  
    2.90000       2.9000     7.776e-06  
    3.00000       3.0000     7.776e-06  
    3.10000       3.1000     7.776e-06  
    3.20000       3.2000     7.776e-06  
    3.30000       3.3000     7.776e-06  
    3.40000       3.4000     7.776e-06  
    3.50000       3.5000     7.776e-06  
    3.60000       3.6000     7.776e-06  
    3.70000       3.7000     7.776e-06  
    3.80000       3.8000     7.776e-06  
    3.90000       3.9000     7.776e-06  
    4.00000       4.0000     7.776e-06  
    4.10000       4.1000     7.776e-06  
    4.20000       4.2000     7.776e-06  
    4.30000       4.3000     7.776e-06  
    4.40000       4.4000     7.776e-06  
    4.50000       4.5000     7.776e-06  
    4.60000       4.6000     7.776e-06  
    4.70000       4.7000     7.776e-06  
    4.80000       4.8000     7.776e-06  
    4.90000       4.9000     7.776e-06  
    5.00000       5.0000     7.776e-06  
    5.10000       5.1000     7.776e-06  
    5.20000       5.2000     7.776e-06  
    5.30000       5.3000     7.776e-06  
    5.40000       5.4000     7.776e-06  
    5.50000       5.5000     7.776e-06  
    5.60000       5.6000     7.776e-06  
    5.70000       5.7000     7.776e-06  
    5.80000       5.8000     7.776e-06  
    5.90000       5.9000     7.776e-06  
    6.00000       6.0000     7.776e-06  
    6.10000       6.1000     7.776e-06  
    6.20000       6.2000     7.776e-06  
    6.30000       6.3000     7.776e-06  
    6.40000       6.4000     7.776e-06  
    6.50000       6.5000     7.776e-06  
    6.60000       6.6000     7.776e-06  
    6.70000       6.7000     7.776e-06  
    6.80000       6.8000     7.776e-06  
    6.90000       6.9000     7.776e-06  
    7.00000       7.0000     7.776e-06  
    7.10000       7.1000     7.776e-06  
    7.20000       7.2000     7.776e-06  
    7.30000       7.3000     7.776e-06  
    7.40000       7.4000     7.776e-06  
    7.50000       7.5000     7.776e-06  
    7.60000       7.6000     7.776e-06  
    7.70000       7.7000     7.776e-06  
    7.80000       7.8000     7.776e-06  
    7.90000       7.9000     7.776e-06  
    8.00000       8.0000     7.776e-06  
    8.10000       8.1000     7.776e-06  
    8.20000       8.2000     7.776e-06  
    8.30000       8.3000     7.776e-06  
    8.40000       8.4000     7.776e-06  
    8.50000       8.5000     7.776e-06  
    8.60000       8.6000     7.776e-06  
    8.70000       8.7000     7.776e-06  
    8.80000       8.8000     7.776e-06  
    8.90000       8.9000     7.776e-06  
    9.00000       9.0000     7.776e-06  
    9.10000       9.1000     7.776e-06  
    9.20000       9.2000     7.776e-06  
    9.30000       9.3000     7.776e-06  
    9.40000       9.4000     7.776e-06  
    9.50000       9.5000     7.776e-06  
    9.60000       9.6000     7.776e-06  
    9.70000       9.7000     7.776e-06  
    9.80000       9.8000     7.776e-06  
    9.90000       9.9000     7.776e-06  
   10.00000      10.0000     7.776e-06  
y
-----------------------------------------------
 ******  
 *sample netlist for gsmc

  ******  dc transfer curves tnom=  25.000 temp=  25.000 *****

   *** source        0:vgs =    2.0000        ***

x

        volt    voltage      current    
                     d          mnmos   
    0.            0.           0.       
    0.10000       0.1000     6.696e-06  
    0.20000       0.2000     1.296e-05  
    0.30000       0.3000     1.879e-05  
    0.40000       0.4000     2.419e-05  
    0.50000       0.5000     2.916e-05  
    0.60000       0.6000     3.370e-05  
    0.70000       0.7000     3.780e-05  
    0.80000       0.8000     4.147e-05  
    0.90000       0.9000     4.471e-05  
    1.00000       1.0000     4.752e-05  
    1.10000       1.1000     4.990e-05  
    1.20000       1.2000     5.184e-05  
    1.30000       1.3000     5.335e-05  
    1.40000       1.4000     5.443e-05  
    1.50000       1.5000     5.508e-05  
    1.60000       1.6000     5.530e-05  
    1.70000       1.7000     5.530e-05  
    1.80000       1.8000     5.530e-05  
    1.90000       1.9000     5.530e-05  
    2.00000       2.0000     5.530e-05  
    2.10000       2.1000     5.530e-05  
    2.20000       2.2000     5.530e-05  
    2.30000       2.3000     5.530e-05  
    2.40000       2.4000     5.530e-05  
    2.50000       2.5000     5.530e-05  
    2.60000       2.6000     5.530e-05  
    2.70000       2.7000     5.530e-05  
    2.80000       2.8000     5.530e-05  
    2.90000       2.9000     5.530e-05  
    3.00000       3.0000     5.530e-05  
    3.10000       3.1000     5.530e-05  
    3.20000       3.2000     5.530e-05  
    3.30000       3.3000     5.530e-05  
    3.40000       3.4000     5.530e-05  
    3.50000       3.5000     5.530e-05  
    3.60000       3.6000     5.530e-05  
    3.70000       3.7000     5.530e-05  
    3.80000       3.8000     5.530e-05  
    3.90000       3.9000     5.530e-05  
    4.00000       4.0000     5.530e-05  
    4.10000       4.1000     5.530e-05  
    4.20000       4.2000     5.530e-05  
    4.30000       4.3000     5.530e-05  
    4.40000       4.4000     5.530e-05  
    4.50000       4.5000     5.530e-05  
    4.60000       4.6000     5.530e-05  
    4.70000       4.7000     5.530e-05  
    4.80000       4.8000     5.530e-05  
    4.90000       4.9000     5.530e-05  
    5.00000       5.0000     5.530e-05  
    5.10000       5.1000     5.530e-05  
    5.20000       5.2000     5.530e-05  
    5.30000       5.3000     5.530e-05  
    5.40000       5.4000     5.530e-05  
    5.50000       5.5000     5.530e-05  
    5.60000       5.6000     5.530e-05  
    5.70000       5.7000     5.530e-05  
    5.80000       5.8000     5.530e-05  
    5.90000       5.9000     5.530e-05  
    6.00000       6.0000     5.530e-05  
    6.10000       6.1000     5.530e-05  
    6.20000       6.2000     5.530e-05  
    6.30000       6.3000     5.530e-05  
    6.40000       6.4000     5.530e-05  
    6.50000       6.5000     5.530e-05  
    6.60000       6.6000     5.530e-05  
    6.70000       6.7000     5.530e-05  
    6.80000       6.8000     5.530e-05  
    6.90000       6.9000     5.530e-05  
    7.00000       7.0000     5.530e-05  
    7.10000       7.1000     5.530e-05  
    7.20000       7.2000     5.530e-05  
    7.30000       7.3000     5.530e-05  
    7.40000       7.4000     5.530e-05  
    7.50000       7.5000     5.530e-05  
    7.60000       7.6000     5.530e-05  
    7.70000       7.7000     5.530e-05  
    7.80000       7.8000     5.530e-05  
    7.90000       7.9000     5.530e-05  
    8.00000       8.0000     5.530e-05  
    8.10000       8.1000     5.530e-05  
    8.20000       8.2000     5.530e-05  
    8.30000       8.3000     5.530e-05  
    8.40000       8.4000     5.530e-05  
    8.50000       8.5000     5.530e-05  
    8.60000       8.6000     5.530e-05  
    8.70000       8.7000     5.530e-05  
    8.80000       8.8000     5.530e-05  
    8.90000       8.9000     5.530e-05  
    9.00000       9.0000     5.530e-05  
    9.10000       9.1000     5.530e-05  
    9.20000       9.2000     5.530e-05  
    9.30000       9.3000     5.530e-05  
    9.40000       9.4000     5.530e-05  
    9.50000       9.5000     5.530e-05  
    9.60000       9.6000     5.530e-05  
    9.70000       9.7000     5.530e-05  
    9.80000       9.8000     5.530e-05  
    9.90000       9.9000     5.530e-05  
   10.00000      10.0000     5.530e-05  
y
-----------------------------------------------
 ******  
 *sample netlist for gsmc

  ******  dc transfer curves tnom=  25.000 temp=  25.000 *****

   *** source        0:vgs =    3.0000        ***

x

        volt    voltage      current    
                     d          mnmos   
    0.            0.           0.       
    0.10000       0.1000     1.102e-05  
    0.20000       0.2000     2.160e-05  
    0.30000       0.3000     3.175e-05  
    0.40000       0.4000     4.147e-05  
    0.50000       0.5000     5.076e-05  
    0.60000       0.6000     5.962e-05  
    0.70000       0.7000     6.804e-05  
    0.80000       0.8000     7.603e-05  
    0.90000       0.9000     8.359e-05  
    1.00000       1.0000     9.072e-05  
    1.10000       1.1000     9.742e-05  
    1.20000       1.2000     1.037e-04  
    1.30000       1.3000     1.095e-04  
    1.40000       1.4000     1.149e-04  
    1.50000       1.5000     1.199e-04  
    1.60000       1.6000     1.244e-04  
    1.70000       1.7000     1.285e-04  
    1.80000       1.8000     1.322e-04  
    1.90000       1.9000     1.354e-04  
    2.00000       2.0000     1.382e-04  
    2.10000       2.1000     1.406e-04  
    2.20000       2.2000     1.426e-04  
    2.30000       2.3000     1.441e-04  
    2.40000       2.4000     1.452e-04  
    2.50000       2.5000     1.458e-04  
    2.60000       2.6000     1.460e-04  
    2.70000       2.7000     1.460e-04  
    2.80000       2.8000     1.460e-04  
    2.90000       2.9000     1.460e-04  
    3.00000       3.0000     1.460e-04  
    3.10000       3.1000     1.460e-04  
    3.20000       3.2000     1.460e-04  
    3.30000       3.3000     1.460e-04  
    3.40000       3.4000     1.460e-04  
    3.50000       3.5000     1.460e-04  
    3.60000       3.6000     1.460e-04  
    3.70000       3.7000     1.460e-04  
    3.80000       3.8000     1.460e-04  
    3.90000       3.9000     1.460e-04  
    4.00000       4.0000     1.460e-04  
    4.10000       4.1000     1.460e-04  
    4.20000       4.2000     1.460e-04  
    4.30000       4.3000     1.460e-04  
    4.40000       4.4000     1.460e-04  
    4.50000       4.5000     1.460e-04  
    4.60000       4.6000     1.460e-04  
    4.70000       4.7000     1.460e-04  
    4.80000       4.8000     1.460e-04  
    4.90000       4.9000     1.460e-04  
    5.00000       5.0000     1.460e-04  
    5.10000       5.1000     1.460e-04  
    5.20000       5.2000     1.460e-04  
    5.30000       5.3000     1.460e-04  
    5.40000       5.4000     1.460e-04  
    5.50000       5.5000     1.460e-04  
    5.60000       5.6000     1.460e-04  
    5.70000       5.7000     1.460e-04  
    5.80000       5.8000     1.460e-04  
    5.90000       5.9000     1.460e-04  
    6.00000       6.0000     1.460e-04  
    6.10000       6.1000     1.460e-04  
    6.20000       6.2000     1.460e-04  
    6.30000       6.3000     1.460e-04  
    6.40000       6.4000     1.460e-04  
    6.50000       6.5000     1.460e-04  
    6.60000       6.6000     1.460e-04  
    6.70000       6.7000     1.460e-04  
    6.80000       6.8000     1.460e-04  
    6.90000       6.9000     1.460e-04  
    7.00000       7.0000     1.460e-04  
    7.10000       7.1000     1.460e-04  
    7.20000       7.2000     1.460e-04  
    7.30000       7.3000     1.460e-04  
    7.40000       7.4000     1.460e-04  
    7.50000       7.5000     1.460e-04  
    7.60000       7.6000     1.460e-04  
    7.70000       7.7000     1.460e-04  
    7.80000       7.8000     1.460e-04  
    7.90000       7.9000     1.460e-04  
    8.00000       8.0000     1.460e-04  
    8.10000       8.1000     1.460e-04  
    8.20000       8.2000     1.460e-04  
    8.30000       8.3000     1.460e-04  
    8.40000       8.4000     1.460e-04  
    8.50000       8.5000     1.460e-04  
    8.60000       8.6000     1.460e-04  
    8.70000       8.7000     1.460e-04  
    8.80000       8.8000     1.460e-04  
    8.90000       8.9000     1.460e-04  
    9.00000       9.0000     1.460e-04  
    9.10000       9.1000     1.460e-04  
    9.20000       9.2000     1.460e-04  
    9.30000       9.3000     1.460e-04  
    9.40000       9.4000     1.460e-04  
    9.50000       9.5000     1.460e-04  
    9.60000       9.6000     1.460e-04  
    9.70000       9.7000     1.460e-04  
    9.80000       9.8000     1.460e-04  
    9.90000       9.9000     1.460e-04  
   10.00000      10.0000     1.460e-04  
y
-----------------------------------------------
 ******  
 *sample netlist for gsmc

  ******  dc transfer curves tnom=  25.000 temp=  25.000 *****

   *** source        0:vgs =    4.0000        ***

x

        volt    voltage      current    
                     d          mnmos   
    0.            0.           0.       
    0.10000       0.1000     1.534e-05  
    0.20000       0.2000     3.024e-05  
    0.30000       0.3000     4.471e-05  
    0.40000       0.4000     5.875e-05  
    0.50000       0.5000     7.236e-05  
    0.60000       0.6000     8.554e-05  
    0.70000       0.7000     9.828e-05  
    0.80000       0.8000     1.106e-04  
    0.90000       0.9000     1.225e-04  
    1.00000       1.0000     1.339e-04  
    1.10000       1.1000     1.449e-04  
    1.20000       1.2000     1.555e-04  
    1.30000       1.3000     1.657e-04  
    1.40000       1.4000     1.754e-04  
    1.50000       1.5000     1.847e-04  
    1.60000       1.6000     1.935e-04  
    1.70000       1.7000     2.020e-04  
    1.80000       1.8000     2.100e-04  
    1.90000       1.9000     2.175e-04  
    2.00000       2.0000     2.246e-04  
    2.10000       2.1000     2.313e-04  
    2.20000       2.2000     2.376e-04  
    2.30000       2.3000     2.434e-04  
    2.40000       2.4000     2.488e-04  
    2.50000       2.5000     2.538e-04  
    2.60000       2.6000     2.583e-04  
    2.70000       2.7000     2.624e-04  
    2.80000       2.8000     2.661e-04  
    2.90000       2.9000     2.694e-04  
    3.00000       3.0000     2.722e-04  
    3.10000       3.1000     2.745e-04  
    3.20000       3.2000     2.765e-04  
    3.30000       3.3000     2.780e-04  
    3.40000       3.4000     2.791e-04  
    3.50000       3.5000     2.797e-04  
    3.60000       3.6000     2.799e-04  
    3.70000       3.7000     2.799e-04  
    3.80000       3.8000     2.799e-04  
    3.90000       3.9000     2.799e-04  
    4.00000       4.0000     2.799e-04  
    4.10000       4.1000     2.799e-04  
    4.20000       4.2000     2.799e-04  
    4.30000       4.3000     2.799e-04  
    4.40000       4.4000     2.799e-04  
    4.50000       4.5000     2.799e-04  
    4.60000       4.6000     2.799e-04  
    4.70000       4.7000     2.799e-04  
    4.80000       4.8000     2.799e-04  
    4.90000       4.9000     2.799e-04  
    5.00000       5.0000     2.799e-04  
    5.10000       5.1000     2.799e-04  
    5.20000       5.2000     2.799e-04  
    5.30000       5.3000     2.799e-04  
    5.40000       5.4000     2.799e-04  
    5.50000       5.5000     2.799e-04  
    5.60000       5.6000     2.799e-04  
    5.70000       5.7000     2.799e-04  
    5.80000       5.8000     2.799e-04  
    5.90000       5.9000     2.799e-04  
    6.00000       6.0000     2.799e-04  
    6.10000       6.1000     2.799e-04  
    6.20000       6.2000     2.799e-04  
    6.30000       6.3000     2.799e-04  
    6.40000       6.4000     2.799e-04  
    6.50000       6.5000     2.799e-04  
    6.60000       6.6000     2.799e-04  
    6.70000       6.7000     2.799e-04  
    6.80000       6.8000     2.799e-04  
    6.90000       6.9000     2.799e-04  
    7.00000       7.0000     2.799e-04  
    7.10000       7.1000     2.799e-04  
    7.20000       7.2000     2.799e-04  
    7.30000       7.3000     2.799e-04  
    7.40000       7.4000     2.799e-04  
    7.50000       7.5000     2.799e-04  
    7.60000       7.6000     2.799e-04  
    7.70000       7.7000     2.799e-04  
    7.80000       7.8000     2.799e-04  
    7.90000       7.9000     2.799e-04  
    8.00000       8.0000     2.799e-04  
    8.10000       8.1000     2.799e-04  
    8.20000       8.2000     2.799e-04  
    8.30000       8.3000     2.799e-04  
    8.40000       8.4000     2.799e-04  
    8.50000       8.5000     2.799e-04  
    8.60000       8.6000     2.799e-04  
    8.70000       8.7000     2.799e-04  
    8.80000       8.8000     2.799e-04  
    8.90000       8.9000     2.799e-04  
    9.00000       9.0000     2.799e-04  
    9.10000       9.1000     2.799e-04  
    9.20000       9.2000     2.799e-04  
    9.30000       9.3000     2.799e-04  
    9.40000       9.4000     2.799e-04  
    9.50000       9.5000     2.799e-04  
    9.60000       9.6000     2.799e-04  
    9.70000       9.7000     2.799e-04  
    9.80000       9.8000     2.799e-04  
    9.90000       9.9000     2.799e-04  
   10.00000      10.0000     2.799e-04  
y
-----------------------------------------------
 ******  
 *sample netlist for gsmc

  ******  dc transfer curves tnom=  25.000 temp=  25.000 *****

   *** source        0:vgs =    5.0000        ***

x

        volt    voltage      current    
                     d          mnmos   
    0.            0.           0.       
    0.10000       0.1000     1.966e-05  
    0.20000       0.2000     3.888e-05  
    0.30000       0.3000     5.767e-05  
    0.40000       0.4000     7.603e-05  
    0.50000       0.5000     9.396e-05  
    0.60000       0.6000     1.115e-04  
    0.70000       0.7000     1.285e-04  
    0.80000       0.8000     1.452e-04  
    0.90000       0.9000     1.614e-04  
    1.00000       1.0000     1.771e-04  
    1.10000       1.1000     1.925e-04  
    1.20000       1.2000     2.074e-04  
    1.30000       1.3000     2.218e-04  
    1.40000       1.4000     2.359e-04  
    1.50000       1.5000     2.495e-04  
    1.60000       1.6000     2.627e-04  
    1.70000       1.7000     2.754e-04  
    1.80000       1.8000     2.877e-04  
    1.90000       1.9000     2.996e-04  
    2.00000       2.0000     3.110e-04  
    2.10000       2.1000     3.221e-04  
    2.20000       2.2000     3.326e-04  
    2.30000       2.3000     3.428e-04  
    2.40000       2.4000     3.525e-04  
    2.50000       2.5000     3.618e-04  
    2.60000       2.6000     3.707e-04  
    2.70000       2.7000     3.791e-04  
    2.80000       2.8000     3.871e-04  
    2.90000       2.9000     3.946e-04  
    3.00000       3.0000     4.018e-04  
    3.10000       3.1000     4.085e-04  
    3.20000       3.2000     4.147e-04  
    3.30000       3.3000     4.206e-04  
    3.40000       3.4000     4.260e-04  
    3.50000       3.5000     4.309e-04  
    3.60000       3.6000     4.355e-04  
    3.70000       3.7000     4.396e-04  
    3.80000       3.8000     4.432e-04  
    3.90000       3.9000     4.465e-04  
    4.00000       4.0000     4.493e-04  
    4.10000       4.1000     4.517e-04  
    4.20000       4.2000     4.536e-04  
    4.30000       4.3000     4.551e-04  
    4.40000       4.4000     4.562e-04  
    4.50000       4.5000     4.568e-04  
    4.60000       4.6000     4.571e-04  
    4.70000       4.7000     4.571e-04  
    4.80000       4.8000     4.571e-04  
    4.90000       4.9000     4.571e-04  
    5.00000       5.0000     4.571e-04  
    5.10000       5.1000     4.571e-04  
    5.20000       5.2000     4.571e-04  
    5.30000       5.3000     4.571e-04  
    5.40000       5.4000     4.571e-04  
    5.50000       5.5000     4.571e-04  
    5.60000       5.6000     4.571e-04  
    5.70000       5.7000     4.571e-04  
    5.80000       5.8000     4.571e-04  
    5.90000       5.9000     4.571e-04  
    6.00000       6.0000     4.571e-04  
    6.10000       6.1000     4.571e-04  
    6.20000       6.2000     4.571e-04  
    6.30000       6.3000     4.571e-04  
    6.40000       6.4000     4.571e-04  
    6.50000       6.5000     4.571e-04  
    6.60000       6.6000     4.571e-04  
    6.70000       6.7000     4.571e-04  
    6.80000       6.8000     4.571e-04  
    6.90000       6.9000     4.571e-04  
    7.00000       7.0000     4.571e-04  
    7.10000       7.1000     4.571e-04  
    7.20000       7.2000     4.571e-04  
    7.30000       7.3000     4.571e-04  
    7.40000       7.4000     4.571e-04  
    7.50000       7.5000     4.571e-04  
    7.60000       7.6000     4.571e-04  
    7.70000       7.7000     4.571e-04  
    7.80000       7.8000     4.571e-04  
    7.90000       7.9000     4.571e-04  
    8.00000       8.0000     4.571e-04  
    8.10000       8.1000     4.571e-04  
    8.20000       8.2000     4.571e-04  
    8.30000       8.3000     4.571e-04  
    8.40000       8.4000     4.571e-04  
    8.50000       8.5000     4.571e-04  
    8.60000       8.6000     4.571e-04  
    8.70000       8.7000     4.571e-04  
    8.80000       8.8000     4.571e-04  
    8.90000       8.9000     4.571e-04  
    9.00000       9.0000     4.571e-04  
    9.10000       9.1000     4.571e-04  
    9.20000       9.2000     4.571e-04  
    9.30000       9.3000     4.571e-04  
    9.40000       9.4000     4.571e-04  
    9.50000       9.5000     4.571e-04  
    9.60000       9.6000     4.571e-04  
    9.70000       9.7000     4.571e-04  
    9.80000       9.8000     4.571e-04  
    9.90000       9.9000     4.571e-04  
   10.00000      10.0000     4.571e-04  
y
-----------------------------------------------

          ***** job concluded
1****** HSPICE -- G-2012.06-SP1 32-BIT (Aug 27 2012) win32 ******               
 ******  
 *sample netlist for gsmc

  ******  job statistics summary tnom=  25.000 temp=  25.000 *****

  ******  HSPICE Threads Information  ******

  Command Line Threads Count :     1
  Available CPU Count        :     8
  Actual Threads Count       :     1


  ******  Circuit Statistics  ******
  # nodes       =       5 # elements   =       6
  # resistors   =       1 # capacitors =       0 # inductors   =       0
  # mutual_inds =       0 # vccs       =       0 # vcvs        =       0
  # cccs        =       0 # ccvs       =       0 # volt_srcs   =       4
  # curr_srcs   =       0 # diodes     =       0 # bjts        =       0
  # jfets       =       0 # mosfets    =       1 # U elements  =       0
  # T elements  =       0 # W elements =       0 # B elements  =       0
  # S elements  =       0 # P elements =       0 # va device   =       0
  # vector_srcs =       0 # N elements =       0


  ******  Runtime Statistics (seconds)  ******

  analysis           time    # points   tot. iter  conv.iter
  op point           0.00           1           0
  dc sweep           0.10         606        1218
  readin             0.12
  errchk             0.02
  setup              0.04
  output             0.00


           peak memory used         49.26 megabytes
           total cpu time            0.41 seconds
           total elapsed time        0.55 seconds
           job started at     21:39:36 11/13/2008
           job ended   at     21:39:36 11/13/2008


  lic: Release hspice token(s) 
 lic: total license checkout elapse time:        0.10(s)
