 ****** HSPICE -- G-2012.06-SP1 32-BIT (Aug 27 2012) win32 ******               
  Copyright (C) 2012 Synopsys, Inc. All Rights Reserved.                        
  Unpublished-rights reserved under US copyright laws.
  This program is protected by law and is subject to the
  terms and conditions of the license agreement from Synopsys.
  Use of this program is your acceptance to be bound by the
  license agreement. HSPICE is the trademark of Synopsys, Inc.
  Input File: pmos_l1_wl.sp                                                     
  Command line options: -i pmos_l1_wl.sp -o pmos_l1_wl.lis
  lic:  
  lic: FLEXlm: v10.9.8 
  lic: USER:   hmr                  HOSTNAME: BF-201911211153 
  lic: HOSTID: "70c94e3215e4 0c9d922ee649 00ffaabbccdd 005056c00001 005056c00008
  70c94e31fa78 12c94e3
  lic: Using FLEXlm license file: 
  lic: D:\synopsys\Hspice_G-2012.06-SP1\license.dat 
  lic: Checkout 1 hspice 
  lic: License/Maintenance for hspice will expire on 31-dec-2019/2019.12 
  lic: NODE LOCKED license on hostid "70c94e3215e4 0c9d922ee649 00ffaabbccdd 005
 056c00001 005056c0000
  lic:   
 Init: read install configuration file: d:\synopsys\Hspice_G-2012.06-SP1\meta.cfg
1****** HSPICE -- G-2012.06-SP1 32-BIT (Aug 27 2012) win32 ******               
 ******  
 *sample netlist for gsmc

  ******  mos   model parameters tnom=  25.000 temp=  25.000 *****
 ***************************************************************************
 *** common model parameters  model name:   0:nfet     model type:pmos   ***
 ***************************************************************************
     names  values   units     names  values   units     names  values   units
     -----  ------   -----     -----  ------   -----     -----  ------   -----

   1*** geometry parameters ***
       ld=   0.    meters      lmlt=   1.00                wd=   0.    meters 
     wmlt=   1.00                xl=   0.    meters        xw=   0.    meters 
     lref=   0.    meters      wref=   0.    meters      lref=   0.    meters 
     wref=   0.    meters     xlref=   0.    meters     xwref=   0.    meters 
     lmin=   0.    meters      wmin=   0.    meters      lmax=   0.    meters 
     wmax=   0.    meters 

   2*** threshold voltage parameters ***
      vto=-400.00m volts        nss=   0.    1/cm**2      tpg=   1.00         
      phi= 816.47m volts      gamma=   1.06  v**0.5      bulk=  gnd           
    ngate=   0.    cm**3       nsub= 1.0e+17 1/cm**3   delvto=   0.    volts  

   3*** gate overlap capacitance parameters ***
     cgbo=   0.    f/meter     cgdo=   0.    f/meter     cgso=   0.    f/meter
     meto=   0.    meters 

   4*** gate capacitance parameters ***
    capop=   2.00               cf1=   0.    volts        cf2= 100.00m volts  
      cf3=   1.00  volts        cf4=  50.00               cf5= 666.67m        
      cf6= 500.00               xqc= 500.00m              tox=  20.00n meters 
      cox=   1.73m f/m**2 

   5*** diffusion parasitic parameters ***
      acm=   0.                  is=  10.00f amps          js=   0.    a/m**2 
      jsw=   0.    amp/m        nds=   1.00               cbd=   0.    farad  
      cbs=   0.    farad         cj=   1.02m f/m**2      cjsw=   0.    f/m    
   cjgate=   0.    f/m           mj= 500.00m             mjsw= 330.00m        
       pb= 800.00m volts        php= 800.00m volts         tt=   0.    secs   
     hdif=   0.    meters      ldif=   0.    meters        rd=   0.    ohms   
       rs=   0.    ohms         rsh=   0.    ohms/sq       fc=   0.           
    alpha=   0.                 vcr=   0.    volts      iirat=   0.           
      rdc=   0.    ohms         rsc=   0.    ohms           n=   1.00         
     vnds=  -1.00  volts  

   6*** temperature effect parameters ***
     tlev=   0.               tlevc=   0.                  eg=   1.11  ev     
     gap1= 702.00u ev/deg      gap2=   1.11k deg          xti=   0.           
      bex=  -1.50               tcv=   0.    v/deg k      trd=   0.    /deg   
      trs=   0.    /deg         cta=   0.    /deg         ctp=   0.    /deg   

   7*** noise parameters ***
       kf=   0.                  af=   1.00              nlev=   2.00         
   gdsnoi=   1.00         

   ***  level  2  model parameters  ***

    delta=   0.               ecrit=   0.    v/m       lambda=   0.    /v     
      nfs=   0.    1/cm**2    ucrit=  10.00k v/cm        uexp=   0.           
     utra=   0.                  uo= 156.38 cm**2/vs       xj=   0.    meters 
     neff=   1.00              vmax=   0.     m/sec        kp=  27.00u a/v**2 
      mob=-1.2e-29            deriv=   0.           
  

 **warning** the following singular supplies were terminated to 1 meg resistor 
   supply       node1            node2
  vbs                     0:b                defined in subckt 0                     0:0                defined in subckt 0               
      
  **warning** (pmos_l1_wl.sp:17)  bulk node 1.8 of mnmos1 is floating.
 **info** set option symb=1 internally to help for convergence.
 *****************************************************************
 ******  option summary
 ******
 runlvl  = 3         bypass  = 2         
 ******  
 *sample netlist for gsmc

  ******  dc transfer curves tnom=  25.000 temp=  25.000 *****

   *** source        0:vgs =   -5.0000        ***

x

        volt    current      current      current      current    
                  mnmos1       mnmos2       mnmos3       mnmos4   
  -10.00000    -4.272e-04   -8.545e-04   -1.282e-03   -1.709e-03  
   -9.90000    -4.271e-04   -8.543e-04   -1.281e-03   -1.709e-03  
   -9.80000    -4.270e-04   -8.540e-04   -1.281e-03   -1.708e-03  
   -9.70000    -4.269e-04   -8.538e-04   -1.281e-03   -1.708e-03  
   -9.60000    -4.268e-04   -8.536e-04   -1.280e-03   -1.707e-03  
   -9.50000    -4.267e-04   -8.533e-04   -1.280e-03   -1.707e-03  
   -9.40000    -4.266e-04   -8.531e-04   -1.280e-03   -1.706e-03  
   -9.30000    -4.264e-04   -8.529e-04   -1.279e-03   -1.706e-03  
   -9.20000    -4.263e-04   -8.526e-04   -1.279e-03   -1.705e-03  
   -9.10000    -4.262e-04   -8.524e-04   -1.279e-03   -1.705e-03  
   -9.00000    -4.261e-04   -8.522e-04   -1.278e-03   -1.704e-03  
   -8.90000    -4.260e-04   -8.519e-04   -1.278e-03   -1.704e-03  
   -8.80000    -4.258e-04   -8.517e-04   -1.278e-03   -1.703e-03  
   -8.70000    -4.257e-04   -8.514e-04   -1.277e-03   -1.703e-03  
   -8.60000    -4.256e-04   -8.512e-04   -1.277e-03   -1.702e-03  
   -8.50000    -4.255e-04   -8.510e-04   -1.276e-03   -1.702e-03  
   -8.40000    -4.254e-04   -8.507e-04   -1.276e-03   -1.701e-03  
   -8.30000    -4.252e-04   -8.505e-04   -1.276e-03   -1.701e-03  
   -8.20000    -4.251e-04   -8.502e-04   -1.275e-03   -1.700e-03  
   -8.10000    -4.250e-04   -8.500e-04   -1.275e-03   -1.700e-03  
   -8.00000    -4.249e-04   -8.497e-04   -1.275e-03   -1.699e-03  
   -7.90000    -4.247e-04   -8.495e-04   -1.274e-03   -1.699e-03  
   -7.80000    -4.246e-04   -8.492e-04   -1.274e-03   -1.698e-03  
   -7.70000    -4.245e-04   -8.490e-04   -1.273e-03   -1.698e-03  
   -7.60000    -4.244e-04   -8.487e-04   -1.273e-03   -1.697e-03  
   -7.50000    -4.242e-04   -8.485e-04   -1.273e-03   -1.697e-03  
   -7.40000    -4.241e-04   -8.482e-04   -1.272e-03   -1.696e-03  
   -7.30000    -4.240e-04   -8.480e-04   -1.272e-03   -1.696e-03  
   -7.20000    -4.239e-04   -8.477e-04   -1.272e-03   -1.695e-03  
   -7.10000    -4.237e-04   -8.475e-04   -1.271e-03   -1.695e-03  
   -7.00000    -4.236e-04   -8.472e-04   -1.271e-03   -1.694e-03  
   -6.90000    -4.235e-04   -8.470e-04   -1.270e-03   -1.694e-03  
   -6.80000    -4.233e-04   -8.467e-04   -1.270e-03   -1.693e-03  
   -6.70000    -4.232e-04   -8.464e-04   -1.270e-03   -1.693e-03  
   -6.60000    -4.231e-04   -8.462e-04   -1.269e-03   -1.692e-03  
   -6.50000    -4.230e-04   -8.459e-04   -1.269e-03   -1.692e-03  
   -6.40000    -4.228e-04   -8.456e-04   -1.268e-03   -1.691e-03  
   -6.30000    -4.227e-04   -8.454e-04   -1.268e-03   -1.691e-03  
   -6.20000    -4.226e-04   -8.451e-04   -1.268e-03   -1.690e-03  
   -6.10000    -4.224e-04   -8.448e-04   -1.267e-03   -1.690e-03  
   -6.00000    -4.223e-04   -8.446e-04   -1.267e-03   -1.689e-03  
   -5.90000    -4.222e-04   -8.443e-04   -1.266e-03   -1.689e-03  
   -5.80000    -4.220e-04   -8.440e-04   -1.266e-03   -1.688e-03  
   -5.70000    -4.219e-04   -8.438e-04   -1.266e-03   -1.688e-03  
   -5.60000    -4.218e-04   -8.435e-04   -1.265e-03   -1.687e-03  
   -5.50000    -4.216e-04   -8.432e-04   -1.265e-03   -1.686e-03  
   -5.40000    -4.215e-04   -8.430e-04   -1.264e-03   -1.686e-03  
   -5.30000    -4.213e-04   -8.427e-04   -1.264e-03   -1.685e-03  
   -5.20000    -4.212e-04   -8.424e-04   -1.264e-03   -1.685e-03  
   -5.10000    -4.211e-04   -8.421e-04   -1.263e-03   -1.684e-03  
   -5.00000    -4.209e-04   -8.419e-04   -1.263e-03   -1.684e-03  
   -4.90000    -4.208e-04   -8.416e-04   -1.262e-03   -1.683e-03  
   -4.80000    -4.207e-04   -8.413e-04   -1.262e-03   -1.683e-03  
   -4.70000    -4.205e-04   -8.411e-04   -1.262e-03   -1.682e-03  
   -4.60000    -4.204e-04   -8.408e-04   -1.261e-03   -1.682e-03  
   -4.50000    -4.203e-04   -8.405e-04   -1.261e-03   -1.681e-03  
   -4.40000    -4.201e-04   -8.402e-04   -1.260e-03   -1.680e-03  
   -4.30000    -4.200e-04   -8.400e-04   -1.260e-03   -1.680e-03  
   -4.20000    -4.199e-04   -8.397e-04   -1.260e-03   -1.679e-03  
   -4.10000    -4.197e-04   -8.394e-04   -1.259e-03   -1.679e-03  
   -4.00000    -4.196e-04   -8.392e-04   -1.259e-03   -1.678e-03  
   -3.90000    -4.194e-04   -8.389e-04   -1.258e-03   -1.678e-03  
   -3.80000    -4.193e-04   -8.386e-04   -1.258e-03   -1.677e-03  
   -3.70000    -4.192e-04   -8.384e-04   -1.258e-03   -1.677e-03  
   -3.60000    -4.190e-04   -8.381e-04   -1.257e-03   -1.676e-03  
   -3.50000    -4.189e-04   -8.378e-04   -1.257e-03   -1.676e-03  
   -3.40000    -4.188e-04   -8.376e-04   -1.256e-03   -1.675e-03  
   -3.30000    -4.187e-04   -8.373e-04   -1.256e-03   -1.675e-03  
   -3.20000    -4.185e-04   -8.370e-04   -1.256e-03   -1.674e-03  
   -3.10000    -4.184e-04   -8.368e-04   -1.255e-03   -1.674e-03  
   -3.00000    -4.182e-04   -8.364e-04   -1.255e-03   -1.673e-03  
   -2.90000    -4.176e-04   -8.353e-04   -1.253e-03   -1.671e-03  
   -2.80000    -4.168e-04   -8.335e-04   -1.250e-03   -1.667e-03  
   -2.70000    -4.156e-04   -8.311e-04   -1.247e-03   -1.662e-03  
   -2.60000    -4.140e-04   -8.280e-04   -1.242e-03   -1.656e-03  
   -2.50000    -4.121e-04   -8.243e-04   -1.236e-03   -1.649e-03  
   -2.40000    -4.099e-04   -8.198e-04   -1.230e-03   -1.640e-03  
   -2.30000    -4.073e-04   -8.147e-04   -1.222e-03   -1.629e-03  
   -2.20000    -4.044e-04   -8.089e-04   -1.213e-03   -1.618e-03  
   -2.10000    -4.012e-04   -8.024e-04   -1.204e-03   -1.605e-03  
   -2.00000    -3.976e-04   -7.953e-04   -1.193e-03   -1.591e-03  
   -1.90000    -3.937e-04   -7.874e-04   -1.181e-03   -1.575e-03  
   -1.80000    -3.895e-04   -7.789e-04   -1.168e-03   -1.558e-03  
   -1.70000    -3.849e-04   -7.697e-04   -1.155e-03   -1.539e-03  
   -1.60000    -3.799e-04   -7.599e-04   -1.140e-03   -1.520e-03  
   -1.50000    -3.746e-04   -7.493e-04   -1.124e-03   -1.499e-03  
   -1.40000    -3.690e-04   -7.380e-04   -1.107e-03   -1.476e-03  
   -1.30000    -3.630e-04   -7.261e-04   -1.089e-03   -1.452e-03  
   -1.20000    -3.567e-04   -7.135e-04   -1.070e-03   -1.427e-03  
   -1.10000    -3.501e-04   -7.002e-04   -1.050e-03   -1.400e-03  
   -1.00000    -3.431e-04   -6.861e-04   -1.029e-03   -1.372e-03  
   -0.90000    -3.357e-04   -6.714e-04   -1.007e-03   -1.343e-03  
   -0.80000    -3.280e-04   -6.560e-04   -9.840e-04   -1.312e-03  
   -0.70000    -3.200e-04   -6.399e-04   -9.599e-04   -1.280e-03  
   -0.60000    -3.116e-04   -6.231e-04   -9.347e-04   -1.246e-03  
   -0.50000    -3.028e-04   -6.056e-04   -9.084e-04   -1.211e-03  
   -0.40000    -2.937e-04   -5.874e-04   -8.811e-04   -1.175e-03  
   -0.30000    -2.842e-04   -5.684e-04   -8.527e-04   -1.137e-03  
   -0.20000    -2.744e-04   -5.488e-04   -8.232e-04   -1.098e-03  
   -0.10000    -2.642e-04   -5.284e-04   -7.927e-04   -1.057e-03  
    0.         -2.537e-04   -5.074e-04   -7.610e-04   -1.015e-03  
    0.10000    -2.428e-04   -4.856e-04   -7.283e-04   -9.711e-04  
    0.20000    -2.315e-04   -4.630e-04   -6.945e-04   -9.261e-04  
    0.30000    -2.199e-04   -4.398e-04   -6.597e-04   -8.795e-04  
    0.40000    -2.079e-04   -4.158e-04   -6.237e-04   -8.316e-04  
    0.50000    -1.955e-04   -3.911e-04   -5.866e-04   -7.821e-04  
    0.60000    -1.828e-04   -3.656e-04   -5.484e-04   -7.312e-04  
    0.70000    -1.697e-04   -3.394e-04   -5.090e-04   -6.787e-04  
    0.80000    -1.562e-04   -3.124e-04   -4.686e-04   -6.248e-04  
    0.90000    -1.423e-04   -2.847e-04   -4.270e-04   -5.693e-04  
    1.00000    -1.281e-04   -2.562e-04   -3.843e-04   -5.123e-04  
    1.10000    -1.135e-04   -2.269e-04   -3.404e-04   -4.538e-04  
    1.20000    -9.843e-05   -1.969e-04   -2.953e-04   -3.937e-04  
    1.30000    -8.301e-05   -1.660e-04   -2.490e-04   -3.320e-04  
    1.40000    -6.720e-05   -1.344e-04   -2.016e-04   -2.688e-04  
    1.50000    -5.098e-05   -1.020e-04   -1.529e-04   -2.039e-04  
    1.60000    -3.436e-05   -6.872e-05   -1.031e-04   -1.374e-04  
    1.70000    -1.735e-05   -3.470e-05   -5.205e-05   -6.940e-05  
    1.80000     6.853e-19    6.853e-19    6.853e-19    6.853e-19  
y
-----------------------------------------------
 ******  
 *sample netlist for gsmc

  ******  dc transfer curves tnom=  25.000 temp=  25.000 *****

   *** source        0:vgs =   -3.0000        ***

x

        volt    current      current      current      current    
                  mnmos1       mnmos2       mnmos3       mnmos4   
  -10.00000    -2.000e-04   -3.999e-04   -5.999e-04   -7.999e-04  
   -9.90000    -1.999e-04   -3.998e-04   -5.997e-04   -7.997e-04  
   -9.80000    -1.999e-04   -3.997e-04   -5.996e-04   -7.994e-04  
   -9.70000    -1.998e-04   -3.996e-04   -5.994e-04   -7.992e-04  
   -9.60000    -1.998e-04   -3.995e-04   -5.993e-04   -7.990e-04  
   -9.50000    -1.997e-04   -3.994e-04   -5.991e-04   -7.988e-04  
   -9.40000    -1.996e-04   -3.993e-04   -5.989e-04   -7.986e-04  
   -9.30000    -1.996e-04   -3.992e-04   -5.988e-04   -7.983e-04  
   -9.20000    -1.995e-04   -3.991e-04   -5.986e-04   -7.981e-04  
   -9.10000    -1.995e-04   -3.989e-04   -5.984e-04   -7.979e-04  
   -9.00000    -1.994e-04   -3.988e-04   -5.983e-04   -7.977e-04  
   -8.90000    -1.994e-04   -3.987e-04   -5.981e-04   -7.974e-04  
   -8.80000    -1.993e-04   -3.986e-04   -5.979e-04   -7.972e-04  
   -8.70000    -1.992e-04   -3.985e-04   -5.977e-04   -7.970e-04  
   -8.60000    -1.992e-04   -3.984e-04   -5.976e-04   -7.968e-04  
   -8.50000    -1.991e-04   -3.983e-04   -5.974e-04   -7.965e-04  
   -8.40000    -1.991e-04   -3.982e-04   -5.972e-04   -7.963e-04  
   -8.30000    -1.990e-04   -3.980e-04   -5.971e-04   -7.961e-04  
   -8.20000    -1.990e-04   -3.979e-04   -5.969e-04   -7.958e-04  
   -8.10000    -1.989e-04   -3.978e-04   -5.967e-04   -7.956e-04  
   -8.00000    -1.988e-04   -3.977e-04   -5.965e-04   -7.954e-04  
   -7.90000    -1.988e-04   -3.976e-04   -5.964e-04   -7.951e-04  
   -7.80000    -1.987e-04   -3.974e-04   -5.962e-04   -7.949e-04  
   -7.70000    -1.987e-04   -3.973e-04   -5.960e-04   -7.947e-04  
   -7.60000    -1.986e-04   -3.972e-04   -5.958e-04   -7.944e-04  
   -7.50000    -1.985e-04   -3.971e-04   -5.956e-04   -7.942e-04  
   -7.40000    -1.985e-04   -3.970e-04   -5.955e-04   -7.939e-04  
   -7.30000    -1.984e-04   -3.968e-04   -5.953e-04   -7.937e-04  
   -7.20000    -1.984e-04   -3.967e-04   -5.951e-04   -7.934e-04  
   -7.10000    -1.983e-04   -3.966e-04   -5.949e-04   -7.932e-04  
   -7.00000    -1.982e-04   -3.965e-04   -5.947e-04   -7.929e-04  
   -6.90000    -1.982e-04   -3.963e-04   -5.945e-04   -7.927e-04  
   -6.80000    -1.981e-04   -3.962e-04   -5.943e-04   -7.924e-04  
   -6.70000    -1.980e-04   -3.961e-04   -5.941e-04   -7.922e-04  
   -6.60000    -1.980e-04   -3.960e-04   -5.940e-04   -7.919e-04  
   -6.50000    -1.979e-04   -3.958e-04   -5.938e-04   -7.917e-04  
   -6.40000    -1.979e-04   -3.957e-04   -5.936e-04   -7.914e-04  
   -6.30000    -1.978e-04   -3.956e-04   -5.934e-04   -7.912e-04  
   -6.20000    -1.977e-04   -3.955e-04   -5.932e-04   -7.909e-04  
   -6.10000    -1.977e-04   -3.953e-04   -5.930e-04   -7.907e-04  
   -6.00000    -1.976e-04   -3.952e-04   -5.928e-04   -7.904e-04  
   -5.90000    -1.975e-04   -3.951e-04   -5.926e-04   -7.901e-04  
   -5.80000    -1.975e-04   -3.949e-04   -5.924e-04   -7.899e-04  
   -5.70000    -1.974e-04   -3.948e-04   -5.922e-04   -7.896e-04  
   -5.60000    -1.973e-04   -3.947e-04   -5.920e-04   -7.893e-04  
   -5.50000    -1.973e-04   -3.945e-04   -5.918e-04   -7.891e-04  
   -5.40000    -1.972e-04   -3.944e-04   -5.916e-04   -7.888e-04  
   -5.30000    -1.971e-04   -3.943e-04   -5.914e-04   -7.885e-04  
   -5.20000    -1.971e-04   -3.941e-04   -5.912e-04   -7.882e-04  
   -5.10000    -1.970e-04   -3.940e-04   -5.910e-04   -7.880e-04  
   -5.00000    -1.969e-04   -3.938e-04   -5.908e-04   -7.877e-04  
   -4.90000    -1.969e-04   -3.937e-04   -5.906e-04   -7.874e-04  
   -4.80000    -1.968e-04   -3.936e-04   -5.904e-04   -7.871e-04  
   -4.70000    -1.967e-04   -3.934e-04   -5.901e-04   -7.869e-04  
   -4.60000    -1.966e-04   -3.933e-04   -5.899e-04   -7.866e-04  
   -4.50000    -1.966e-04   -3.931e-04   -5.897e-04   -7.863e-04  
   -4.40000    -1.965e-04   -3.930e-04   -5.895e-04   -7.860e-04  
   -4.30000    -1.964e-04   -3.929e-04   -5.893e-04   -7.857e-04  
   -4.20000    -1.964e-04   -3.927e-04   -5.891e-04   -7.854e-04  
   -4.10000    -1.963e-04   -3.926e-04   -5.889e-04   -7.851e-04  
   -4.00000    -1.962e-04   -3.924e-04   -5.886e-04   -7.849e-04  
   -3.90000    -1.961e-04   -3.923e-04   -5.884e-04   -7.846e-04  
   -3.80000    -1.961e-04   -3.921e-04   -5.882e-04   -7.843e-04  
   -3.70000    -1.960e-04   -3.920e-04   -5.880e-04   -7.840e-04  
   -3.60000    -1.959e-04   -3.918e-04   -5.878e-04   -7.837e-04  
   -3.50000    -1.958e-04   -3.917e-04   -5.875e-04   -7.834e-04  
   -3.40000    -1.958e-04   -3.915e-04   -5.873e-04   -7.831e-04  
   -3.30000    -1.957e-04   -3.914e-04   -5.871e-04   -7.828e-04  
   -3.20000    -1.956e-04   -3.912e-04   -5.869e-04   -7.825e-04  
   -3.10000    -1.955e-04   -3.911e-04   -5.866e-04   -7.822e-04  
   -3.00000    -1.955e-04   -3.909e-04   -5.864e-04   -7.819e-04  
   -2.90000    -1.954e-04   -3.908e-04   -5.862e-04   -7.816e-04  
   -2.80000    -1.953e-04   -3.906e-04   -5.860e-04   -7.813e-04  
   -2.70000    -1.952e-04   -3.905e-04   -5.857e-04   -7.810e-04  
   -2.60000    -1.952e-04   -3.903e-04   -5.855e-04   -7.807e-04  
   -2.50000    -1.951e-04   -3.902e-04   -5.853e-04   -7.804e-04  
   -2.40000    -1.950e-04   -3.900e-04   -5.850e-04   -7.800e-04  
   -2.30000    -1.949e-04   -3.899e-04   -5.848e-04   -7.797e-04  
   -2.20000    -1.949e-04   -3.897e-04   -5.846e-04   -7.794e-04  
   -2.10000    -1.948e-04   -3.896e-04   -5.843e-04   -7.791e-04  
   -2.00000    -1.947e-04   -3.894e-04   -5.841e-04   -7.788e-04  
   -1.90000    -1.946e-04   -3.892e-04   -5.839e-04   -7.785e-04  
   -1.80000    -1.945e-04   -3.891e-04   -5.836e-04   -7.782e-04  
   -1.70000    -1.945e-04   -3.889e-04   -5.834e-04   -7.779e-04  
   -1.60000    -1.944e-04   -3.888e-04   -5.832e-04   -7.775e-04  
   -1.50000    -1.943e-04   -3.886e-04   -5.829e-04   -7.772e-04  
   -1.40000    -1.942e-04   -3.883e-04   -5.825e-04   -7.767e-04  
   -1.30000    -1.937e-04   -3.874e-04   -5.811e-04   -7.748e-04  
   -1.20000    -1.929e-04   -3.858e-04   -5.786e-04   -7.715e-04  
   -1.10000    -1.917e-04   -3.834e-04   -5.751e-04   -7.669e-04  
   -1.00000    -1.902e-04   -3.804e-04   -5.706e-04   -7.608e-04  
   -0.90000    -1.883e-04   -3.767e-04   -5.650e-04   -7.533e-04  
   -0.80000    -1.861e-04   -3.722e-04   -5.583e-04   -7.445e-04  
   -0.70000    -1.835e-04   -3.671e-04   -5.506e-04   -7.342e-04  
   -0.60000    -1.806e-04   -3.612e-04   -5.419e-04   -7.225e-04  
   -0.50000    -1.773e-04   -3.547e-04   -5.320e-04   -7.093e-04  
   -0.40000    -1.737e-04   -3.474e-04   -5.211e-04   -6.948e-04  
   -0.30000    -1.697e-04   -3.394e-04   -5.091e-04   -6.788e-04  
   -0.20000    -1.654e-04   -3.307e-04   -4.961e-04   -6.614e-04  
   -0.10000    -1.606e-04   -3.213e-04   -4.819e-04   -6.426e-04  
    0.         -1.556e-04   -3.111e-04   -4.667e-04   -6.223e-04  
    0.10000    -1.501e-04   -3.003e-04   -4.504e-04   -6.005e-04  
    0.20000    -1.443e-04   -2.887e-04   -4.330e-04   -5.773e-04  
    0.30000    -1.382e-04   -2.763e-04   -4.145e-04   -5.526e-04  
    0.40000    -1.316e-04   -2.632e-04   -3.949e-04   -5.265e-04  
    0.50000    -1.247e-04   -2.494e-04   -3.741e-04   -4.989e-04  
    0.60000    -1.174e-04   -2.349e-04   -3.523e-04   -4.697e-04  
    0.70000    -1.098e-04   -2.196e-04   -3.293e-04   -4.391e-04  
    0.80000    -1.017e-04   -2.035e-04   -3.052e-04   -4.070e-04  
    0.90000    -9.333e-05   -1.867e-04   -2.800e-04   -3.733e-04  
    1.00000    -8.453e-05   -1.691e-04   -2.536e-04   -3.381e-04  
    1.10000    -7.534e-05   -1.507e-04   -2.260e-04   -3.014e-04  
    1.20000    -6.577e-05   -1.315e-04   -1.973e-04   -2.631e-04  
    1.30000    -5.580e-05   -1.116e-04   -1.674e-04   -2.232e-04  
    1.40000    -4.543e-05   -9.085e-05   -1.363e-04   -1.817e-04  
    1.50000    -3.465e-05   -6.931e-05   -1.040e-04   -1.386e-04  
    1.60000    -2.348e-05   -4.696e-05   -7.044e-05   -9.391e-05  
    1.70000    -1.191e-05   -2.382e-05   -3.572e-05   -4.763e-05  
    1.80000     6.853e-19    6.853e-19    6.853e-19    6.853e-19  
y
-----------------------------------------------
 ******  
 *sample netlist for gsmc

  ******  dc transfer curves tnom=  25.000 temp=  25.000 *****

   *** source        0:vgs =   -1.0000        ***

x

        volt    current      current      current      current    
                  mnmos1       mnmos2       mnmos3       mnmos4   
  -10.00000    -5.996e-05   -1.199e-04   -1.799e-04   -2.398e-04  
   -9.90000    -5.994e-05   -1.199e-04   -1.798e-04   -2.398e-04  
   -9.80000    -5.992e-05   -1.198e-04   -1.798e-04   -2.397e-04  
   -9.70000    -5.990e-05   -1.198e-04   -1.797e-04   -2.396e-04  
   -9.60000    -5.988e-05   -1.198e-04   -1.797e-04   -2.395e-04  
   -9.50000    -5.987e-05   -1.197e-04   -1.796e-04   -2.395e-04  
   -9.40000    -5.985e-05   -1.197e-04   -1.795e-04   -2.394e-04  
   -9.30000    -5.983e-05   -1.197e-04   -1.795e-04   -2.393e-04  
   -9.20000    -5.981e-05   -1.196e-04   -1.794e-04   -2.392e-04  
   -9.10000    -5.979e-05   -1.196e-04   -1.794e-04   -2.391e-04  
   -9.00000    -5.977e-05   -1.195e-04   -1.793e-04   -2.391e-04  
   -8.90000    -5.975e-05   -1.195e-04   -1.792e-04   -2.390e-04  
   -8.80000    -5.973e-05   -1.195e-04   -1.792e-04   -2.389e-04  
   -8.70000    -5.971e-05   -1.194e-04   -1.791e-04   -2.388e-04  
   -8.60000    -5.969e-05   -1.194e-04   -1.791e-04   -2.388e-04  
   -8.50000    -5.967e-05   -1.193e-04   -1.790e-04   -2.387e-04  
   -8.40000    -5.965e-05   -1.193e-04   -1.789e-04   -2.386e-04  
   -8.30000    -5.963e-05   -1.193e-04   -1.789e-04   -2.385e-04  
   -8.20000    -5.961e-05   -1.192e-04   -1.788e-04   -2.384e-04  
   -8.10000    -5.958e-05   -1.192e-04   -1.788e-04   -2.383e-04  
   -8.00000    -5.956e-05   -1.191e-04   -1.787e-04   -2.383e-04  
   -7.90000    -5.954e-05   -1.191e-04   -1.786e-04   -2.382e-04  
   -7.80000    -5.952e-05   -1.190e-04   -1.786e-04   -2.381e-04  
   -7.70000    -5.950e-05   -1.190e-04   -1.785e-04   -2.380e-04  
   -7.60000    -5.948e-05   -1.190e-04   -1.784e-04   -2.379e-04  
   -7.50000    -5.946e-05   -1.189e-04   -1.784e-04   -2.378e-04  
   -7.40000    -5.944e-05   -1.189e-04   -1.783e-04   -2.377e-04  
   -7.30000    -5.941e-05   -1.188e-04   -1.782e-04   -2.377e-04  
   -7.20000    -5.939e-05   -1.188e-04   -1.782e-04   -2.376e-04  
   -7.10000    -5.937e-05   -1.187e-04   -1.781e-04   -2.375e-04  
   -7.00000    -5.935e-05   -1.187e-04   -1.780e-04   -2.374e-04  
   -6.90000    -5.932e-05   -1.186e-04   -1.780e-04   -2.373e-04  
   -6.80000    -5.930e-05   -1.186e-04   -1.779e-04   -2.372e-04  
   -6.70000    -5.928e-05   -1.186e-04   -1.778e-04   -2.371e-04  
   -6.60000    -5.926e-05   -1.185e-04   -1.778e-04   -2.370e-04  
   -6.50000    -5.923e-05   -1.185e-04   -1.777e-04   -2.369e-04  
   -6.40000    -5.921e-05   -1.184e-04   -1.776e-04   -2.368e-04  
   -6.30000    -5.919e-05   -1.184e-04   -1.776e-04   -2.367e-04  
   -6.20000    -5.916e-05   -1.183e-04   -1.775e-04   -2.367e-04  
   -6.10000    -5.914e-05   -1.183e-04   -1.774e-04   -2.366e-04  
   -6.00000    -5.912e-05   -1.182e-04   -1.773e-04   -2.365e-04  
   -5.90000    -5.909e-05   -1.182e-04   -1.773e-04   -2.364e-04  
   -5.80000    -5.907e-05   -1.181e-04   -1.772e-04   -2.363e-04  
   -5.70000    -5.904e-05   -1.181e-04   -1.771e-04   -2.362e-04  
   -5.60000    -5.902e-05   -1.180e-04   -1.771e-04   -2.361e-04  
   -5.50000    -5.899e-05   -1.180e-04   -1.770e-04   -2.360e-04  
   -5.40000    -5.897e-05   -1.179e-04   -1.769e-04   -2.359e-04  
   -5.30000    -5.894e-05   -1.179e-04   -1.768e-04   -2.358e-04  
   -5.20000    -5.892e-05   -1.178e-04   -1.768e-04   -2.357e-04  
   -5.10000    -5.889e-05   -1.178e-04   -1.767e-04   -2.356e-04  
   -5.00000    -5.887e-05   -1.177e-04   -1.766e-04   -2.355e-04  
   -4.90000    -5.884e-05   -1.177e-04   -1.765e-04   -2.354e-04  
   -4.80000    -5.881e-05   -1.176e-04   -1.764e-04   -2.353e-04  
   -4.70000    -5.879e-05   -1.176e-04   -1.764e-04   -2.352e-04  
   -4.60000    -5.876e-05   -1.175e-04   -1.763e-04   -2.350e-04  
   -4.50000    -5.873e-05   -1.175e-04   -1.762e-04   -2.349e-04  
   -4.40000    -5.871e-05   -1.174e-04   -1.761e-04   -2.348e-04  
   -4.30000    -5.868e-05   -1.174e-04   -1.760e-04   -2.347e-04  
   -4.20000    -5.865e-05   -1.173e-04   -1.760e-04   -2.346e-04  
   -4.10000    -5.862e-05   -1.172e-04   -1.759e-04   -2.345e-04  
   -4.00000    -5.860e-05   -1.172e-04   -1.758e-04   -2.344e-04  
   -3.90000    -5.857e-05   -1.171e-04   -1.757e-04   -2.343e-04  
   -3.80000    -5.854e-05   -1.171e-04   -1.756e-04   -2.342e-04  
   -3.70000    -5.851e-05   -1.170e-04   -1.755e-04   -2.340e-04  
   -3.60000    -5.848e-05   -1.170e-04   -1.754e-04   -2.339e-04  
   -3.50000    -5.845e-05   -1.169e-04   -1.754e-04   -2.338e-04  
   -3.40000    -5.842e-05   -1.168e-04   -1.753e-04   -2.337e-04  
   -3.30000    -5.839e-05   -1.168e-04   -1.752e-04   -2.336e-04  
   -3.20000    -5.836e-05   -1.167e-04   -1.751e-04   -2.334e-04  
   -3.10000    -5.833e-05   -1.167e-04   -1.750e-04   -2.333e-04  
   -3.00000    -5.830e-05   -1.166e-04   -1.749e-04   -2.332e-04  
   -2.90000    -5.827e-05   -1.165e-04   -1.748e-04   -2.331e-04  
   -2.80000    -5.824e-05   -1.165e-04   -1.747e-04   -2.329e-04  
   -2.70000    -5.820e-05   -1.164e-04   -1.746e-04   -2.328e-04  
   -2.60000    -5.817e-05   -1.163e-04   -1.745e-04   -2.327e-04  
   -2.50000    -5.814e-05   -1.163e-04   -1.744e-04   -2.326e-04  
   -2.40000    -5.811e-05   -1.162e-04   -1.743e-04   -2.324e-04  
   -2.30000    -5.807e-05   -1.161e-04   -1.742e-04   -2.323e-04  
   -2.20000    -5.804e-05   -1.161e-04   -1.741e-04   -2.322e-04  
   -2.10000    -5.800e-05   -1.160e-04   -1.740e-04   -2.320e-04  
   -2.00000    -5.797e-05   -1.159e-04   -1.739e-04   -2.319e-04  
   -1.90000    -5.793e-05   -1.159e-04   -1.738e-04   -2.317e-04  
   -1.80000    -5.790e-05   -1.158e-04   -1.737e-04   -2.316e-04  
   -1.70000    -5.786e-05   -1.157e-04   -1.736e-04   -2.314e-04  
   -1.60000    -5.782e-05   -1.156e-04   -1.735e-04   -2.313e-04  
   -1.50000    -5.779e-05   -1.156e-04   -1.734e-04   -2.311e-04  
   -1.40000    -5.775e-05   -1.155e-04   -1.732e-04   -2.310e-04  
   -1.30000    -5.771e-05   -1.154e-04   -1.731e-04   -2.308e-04  
   -1.20000    -5.767e-05   -1.153e-04   -1.730e-04   -2.307e-04  
   -1.10000    -5.763e-05   -1.153e-04   -1.729e-04   -2.305e-04  
   -1.00000    -5.759e-05   -1.152e-04   -1.728e-04   -2.304e-04  
   -0.90000    -5.755e-05   -1.151e-04   -1.726e-04   -2.302e-04  
   -0.80000    -5.750e-05   -1.150e-04   -1.725e-04   -2.300e-04  
   -0.70000    -5.746e-05   -1.149e-04   -1.724e-04   -2.298e-04  
   -0.60000    -5.742e-05   -1.148e-04   -1.722e-04   -2.297e-04  
   -0.50000    -5.737e-05   -1.147e-04   -1.721e-04   -2.295e-04  
   -0.40000    -5.732e-05   -1.146e-04   -1.720e-04   -2.293e-04  
   -0.30000    -5.727e-05   -1.145e-04   -1.718e-04   -2.291e-04  
   -0.20000    -5.722e-05   -1.144e-04   -1.717e-04   -2.289e-04  
   -0.10000    -5.717e-05   -1.143e-04   -1.715e-04   -2.287e-04  
    0.         -5.712e-05   -1.142e-04   -1.714e-04   -2.285e-04  
    0.10000    -5.706e-05   -1.141e-04   -1.712e-04   -2.282e-04  
    0.20000    -5.675e-05   -1.135e-04   -1.703e-04   -2.270e-04  
    0.30000    -5.608e-05   -1.122e-04   -1.682e-04   -2.243e-04  
    0.40000    -5.503e-05   -1.101e-04   -1.651e-04   -2.201e-04  
    0.50000    -5.361e-05   -1.072e-04   -1.608e-04   -2.144e-04  
    0.60000    -5.181e-05   -1.036e-04   -1.554e-04   -2.073e-04  
    0.70000    -4.964e-05   -9.928e-05   -1.489e-04   -1.986e-04  
    0.80000    -4.708e-05   -9.417e-05   -1.413e-04   -1.883e-04  
    0.90000    -4.415e-05   -8.829e-05   -1.324e-04   -1.766e-04  
    1.00000    -4.082e-05   -8.164e-05   -1.225e-04   -1.633e-04  
    1.10000    -3.711e-05   -7.421e-05   -1.113e-04   -1.484e-04  
    1.20000    -3.300e-05   -6.600e-05   -9.900e-05   -1.320e-04  
    1.30000    -2.849e-05   -5.699e-05   -8.548e-05   -1.140e-04  
    1.40000    -2.359e-05   -4.718e-05   -7.077e-05   -9.436e-05  
    1.50000    -1.828e-05   -3.656e-05   -5.484e-05   -7.312e-05  
    1.60000    -1.256e-05   -2.513e-05   -3.769e-05   -5.025e-05  
    1.70000    -6.452e-06   -1.290e-05   -1.935e-05   -2.581e-05  
    1.80000     6.853e-19    6.853e-19    6.853e-19    6.853e-19  
y
-----------------------------------------------
 ******  
 *sample netlist for gsmc

  ******  dc transfer curves tnom=  25.000 temp=  25.000 *****

   *** source        0:vgs =    1.0000        ***

x

        volt    current      current      current      current    
                  mnmos1       mnmos2       mnmos3       mnmos4   
  -10.00000    -2.932e-06   -5.865e-06   -8.797e-06   -1.173e-05  
   -9.90000    -2.929e-06   -5.858e-06   -8.788e-06   -1.172e-05  
   -9.80000    -2.926e-06   -5.852e-06   -8.778e-06   -1.170e-05  
   -9.70000    -2.923e-06   -5.846e-06   -8.769e-06   -1.169e-05  
   -9.60000    -2.920e-06   -5.839e-06   -8.759e-06   -1.168e-05  
   -9.50000    -2.916e-06   -5.833e-06   -8.749e-06   -1.167e-05  
   -9.40000    -2.913e-06   -5.826e-06   -8.739e-06   -1.165e-05  
   -9.30000    -2.910e-06   -5.820e-06   -8.729e-06   -1.164e-05  
   -9.20000    -2.906e-06   -5.813e-06   -8.719e-06   -1.163e-05  
   -9.10000    -2.903e-06   -5.806e-06   -8.709e-06   -1.161e-05  
   -9.00000    -2.900e-06   -5.799e-06   -8.699e-06   -1.160e-05  
   -8.90000    -2.896e-06   -5.793e-06   -8.689e-06   -1.159e-05  
   -8.80000    -2.893e-06   -5.786e-06   -8.679e-06   -1.157e-05  
   -8.70000    -2.889e-06   -5.779e-06   -8.668e-06   -1.156e-05  
   -8.60000    -2.886e-06   -5.772e-06   -8.658e-06   -1.154e-05  
   -8.50000    -2.882e-06   -5.765e-06   -8.647e-06   -1.153e-05  
   -8.40000    -2.879e-06   -5.758e-06   -8.637e-06   -1.152e-05  
   -8.30000    -2.875e-06   -5.751e-06   -8.626e-06   -1.150e-05  
   -8.20000    -2.872e-06   -5.744e-06   -8.615e-06   -1.149e-05  
   -8.10000    -2.868e-06   -5.736e-06   -8.605e-06   -1.147e-05  
   -8.00000    -2.865e-06   -5.729e-06   -8.594e-06   -1.146e-05  
   -7.90000    -2.861e-06   -5.722e-06   -8.583e-06   -1.144e-05  
   -7.80000    -2.857e-06   -5.714e-06   -8.571e-06   -1.143e-05  
   -7.70000    -2.853e-06   -5.707e-06   -8.560e-06   -1.141e-05  
   -7.60000    -2.850e-06   -5.699e-06   -8.549e-06   -1.140e-05  
   -7.50000    -2.846e-06   -5.692e-06   -8.537e-06   -1.138e-05  
   -7.40000    -2.842e-06   -5.684e-06   -8.526e-06   -1.137e-05  
   -7.30000    -2.838e-06   -5.676e-06   -8.514e-06   -1.135e-05  
   -7.20000    -2.834e-06   -5.668e-06   -8.502e-06   -1.134e-05  
   -7.10000    -2.830e-06   -5.660e-06   -8.491e-06   -1.132e-05  
   -7.00000    -2.826e-06   -5.652e-06   -8.479e-06   -1.130e-05  
   -6.90000    -2.822e-06   -5.644e-06   -8.467e-06   -1.129e-05  
   -6.80000    -2.818e-06   -5.636e-06   -8.454e-06   -1.127e-05  
   -6.70000    -2.814e-06   -5.628e-06   -8.442e-06   -1.126e-05  
   -6.60000    -2.810e-06   -5.620e-06   -8.430e-06   -1.124e-05  
   -6.50000    -2.806e-06   -5.611e-06   -8.417e-06   -1.122e-05  
   -6.40000    -2.801e-06   -5.603e-06   -8.404e-06   -1.121e-05  
   -6.30000    -2.797e-06   -5.594e-06   -8.392e-06   -1.119e-05  
   -6.20000    -2.793e-06   -5.586e-06   -8.379e-06   -1.117e-05  
   -6.10000    -2.789e-06   -5.577e-06   -8.366e-06   -1.115e-05  
   -6.00000    -2.784e-06   -5.568e-06   -8.352e-06   -1.114e-05  
   -5.90000    -2.780e-06   -5.559e-06   -8.339e-06   -1.112e-05  
   -5.80000    -2.775e-06   -5.550e-06   -8.326e-06   -1.110e-05  
   -5.70000    -2.771e-06   -5.541e-06   -8.312e-06   -1.108e-05  
   -5.60000    -2.766e-06   -5.532e-06   -8.298e-06   -1.106e-05  
   -5.50000    -2.761e-06   -5.523e-06   -8.284e-06   -1.105e-05  
   -5.40000    -2.757e-06   -5.513e-06   -8.270e-06   -1.103e-05  
   -5.30000    -2.752e-06   -5.504e-06   -8.256e-06   -1.101e-05  
   -5.20000    -2.747e-06   -5.494e-06   -8.241e-06   -1.099e-05  
   -5.10000    -2.742e-06   -5.484e-06   -8.227e-06   -1.097e-05  
   -5.00000    -2.737e-06   -5.475e-06   -8.212e-06   -1.095e-05  
   -4.90000    -2.732e-06   -5.465e-06   -8.197e-06   -1.093e-05  
   -4.80000    -2.727e-06   -5.454e-06   -8.182e-06   -1.091e-05  
   -4.70000    -2.722e-06   -5.444e-06   -8.166e-06   -1.089e-05  
   -4.60000    -2.717e-06   -5.434e-06   -8.151e-06   -1.087e-05  
   -4.50000    -2.712e-06   -5.423e-06   -8.135e-06   -1.085e-05  
   -4.40000    -2.706e-06   -5.413e-06   -8.119e-06   -1.083e-05  
   -4.30000    -2.701e-06   -5.402e-06   -8.103e-06   -1.080e-05  
   -4.20000    -2.695e-06   -5.391e-06   -8.086e-06   -1.078e-05  
   -4.10000    -2.690e-06   -5.380e-06   -8.070e-06   -1.076e-05  
   -4.00000    -2.684e-06   -5.369e-06   -8.053e-06   -1.074e-05  
   -3.90000    -2.679e-06   -5.357e-06   -8.036e-06   -1.071e-05  
   -3.80000    -2.673e-06   -5.345e-06   -8.018e-06   -1.069e-05  
   -3.70000    -2.667e-06   -5.334e-06   -8.001e-06   -1.067e-05  
   -3.60000    -2.661e-06   -5.322e-06   -7.983e-06   -1.064e-05  
   -3.50000    -2.655e-06   -5.310e-06   -7.964e-06   -1.062e-05  
   -3.40000    -2.649e-06   -5.297e-06   -7.946e-06   -1.059e-05  
   -3.30000    -2.642e-06   -5.285e-06   -7.927e-06   -1.057e-05  
   -3.20000    -2.636e-06   -5.272e-06   -7.908e-06   -1.054e-05  
   -3.10000    -2.629e-06   -5.259e-06   -7.888e-06   -1.052e-05  
   -3.00000    -2.623e-06   -5.246e-06   -7.868e-06   -1.049e-05  
   -2.90000    -2.616e-06   -5.232e-06   -7.848e-06   -1.046e-05  
   -2.80000    -2.609e-06   -5.218e-06   -7.828e-06   -1.044e-05  
   -2.70000    -2.602e-06   -5.204e-06   -7.807e-06   -1.041e-05  
   -2.60000    -2.595e-06   -5.190e-06   -7.785e-06   -1.038e-05  
   -2.50000    -2.588e-06   -5.176e-06   -7.764e-06   -1.035e-05  
   -2.40000    -2.580e-06   -5.161e-06   -7.741e-06   -1.032e-05  
   -2.30000    -2.573e-06   -5.146e-06   -7.719e-06   -1.029e-05  
   -2.20000    -2.565e-06   -5.130e-06   -7.695e-06   -1.026e-05  
   -2.10000    -2.557e-06   -5.115e-06   -7.672e-06   -1.023e-05  
   -2.00000    -2.549e-06   -5.098e-06   -7.648e-06   -1.020e-05  
   -1.90000    -2.541e-06   -5.082e-06   -7.623e-06   -1.016e-05  
   -1.80000    -2.532e-06   -5.065e-06   -7.597e-06   -1.013e-05  
   -1.70000    -2.524e-06   -5.048e-06   -7.571e-06   -1.010e-05  
   -1.60000    -2.515e-06   -5.030e-06   -7.545e-06   -1.006e-05  
   -1.50000    -2.506e-06   -5.012e-06   -7.517e-06   -1.002e-05  
   -1.40000    -2.496e-06   -4.993e-06   -7.489e-06   -9.986e-06  
   -1.30000    -2.487e-06   -4.974e-06   -7.460e-06   -9.947e-06  
   -1.20000    -2.477e-06   -4.954e-06   -7.431e-06   -9.908e-06  
   -1.10000    -2.467e-06   -4.933e-06   -7.400e-06   -9.867e-06  
   -1.00000    -2.456e-06   -4.912e-06   -7.368e-06   -9.825e-06  
   -0.90000    -2.445e-06   -4.891e-06   -7.336e-06   -9.781e-06  
   -0.80000    -2.434e-06   -4.868e-06   -7.302e-06   -9.736e-06  
   -0.70000    -2.422e-06   -4.845e-06   -7.267e-06   -9.690e-06  
   -0.60000    -2.410e-06   -4.821e-06   -7.231e-06   -9.641e-06  
   -0.50000    -2.398e-06   -4.796e-06   -7.193e-06   -9.591e-06  
   -0.40000    -2.385e-06   -4.770e-06   -7.154e-06   -9.539e-06  
   -0.30000    -2.371e-06   -4.742e-06   -7.114e-06   -9.485e-06  
   -0.20000    -2.357e-06   -4.714e-06   -7.071e-06   -9.428e-06  
   -0.10000    -2.342e-06   -4.684e-06   -7.026e-06   -9.369e-06  
    0.         -2.327e-06   -4.653e-06   -6.980e-06   -9.306e-06  
    0.10000    -2.310e-06   -4.620e-06   -6.930e-06   -9.241e-06  
    0.20000    -2.292e-06   -4.585e-06   -6.877e-06   -9.169e-06  
    0.30000    -2.274e-06   -4.548e-06   -6.821e-06   -9.095e-06  
    0.40000    -2.254e-06   -4.508e-06   -6.762e-06   -9.017e-06  
    0.50000    -2.233e-06   -4.466e-06   -6.699e-06   -8.932e-06  
    0.60000    -2.210e-06   -4.421e-06   -6.631e-06   -8.842e-06  
    0.70000    -2.186e-06   -4.372e-06   -6.558e-06   -8.743e-06  
    0.80000    -2.159e-06   -4.318e-06   -6.477e-06   -8.636e-06  
    0.90000    -2.130e-06   -4.259e-06   -6.389e-06   -8.518e-06  
    1.00000    -2.097e-06   -4.193e-06   -6.290e-06   -8.386e-06  
    1.10000    -2.059e-06   -4.119e-06   -6.178e-06   -8.238e-06  
    1.20000    -2.017e-06   -4.033e-06   -6.050e-06   -8.066e-06  
    1.30000    -1.966e-06   -3.932e-06   -5.899e-06   -7.865e-06  
    1.40000    -1.905e-06   -3.810e-06   -5.716e-06   -7.621e-06  
    1.50000    -1.828e-06   -3.656e-06   -5.484e-06   -7.313e-06  
    1.60000    -1.595e-06   -3.191e-06   -4.786e-06   -6.381e-06  
    1.70000    -9.688e-07   -1.938e-06   -2.906e-06   -3.875e-06  
    1.80000     6.853e-19    6.853e-19    6.853e-19    6.853e-19  
y
-----------------------------------------------

          ***** job concluded
1****** HSPICE -- G-2012.06-SP1 32-BIT (Aug 27 2012) win32 ******               
 ******  
 *sample netlist for gsmc

  ******  job statistics summary tnom=  25.000 temp=  25.000 *****

  ******  HSPICE Threads Information  ******

  Command Line Threads Count :     1
  Available CPU Count        :     8
  Actual Threads Count       :     1


  ******  Circuit Statistics  ******
  # nodes       =       6 # elements   =       9
  # resistors   =       1 # capacitors =       0 # inductors   =       0
  # mutual_inds =       0 # vccs       =       0 # vcvs        =       0
  # cccs        =       0 # ccvs       =       0 # volt_srcs   =       4
  # curr_srcs   =       0 # diodes     =       0 # bjts        =       0
  # jfets       =       0 # mosfets    =       4 # U elements  =       0
  # T elements  =       0 # W elements =       0 # B elements  =       0
  # S elements  =       0 # P elements =       0 # va device   =       0
  # vector_srcs =       0 # N elements =       0


  ******  Runtime Statistics (seconds)  ******

  analysis           time    # points   tot. iter  conv.iter
  op point           0.00           1           0
  dc sweep           0.05         476        1043
  readin             0.09
  errchk             0.02
  setup              0.03
  output             0.00


           peak memory used         36.45 megabytes
           total cpu time            0.26 seconds
           total elapsed time        0.36 seconds
           job started at     23:19:05 11/17/2018
           job ended   at     23:19:05 11/17/2018


  lic: Release hspice token(s) 
 lic: total license checkout elapse time:        0.09(s)
