 ****** HSPICE -- G-2012.06-SP1 32-BIT (Aug 27 2012) win32 ******               
  Copyright (C) 2012 Synopsys, Inc. All Rights Reserved.                        
  Unpublished-rights reserved under US copyright laws.
  This program is protected by law and is subject to the
  terms and conditions of the license agreement from Synopsys.
  Use of this program is your acceptance to be bound by the
  license agreement. HSPICE is the trademark of Synopsys, Inc.
  Input File: pmos.sp                                                           
  Command line options: -i pmos.sp -o pmos.lis
  lic:  
  lic: FLEXlm: v10.9.8 
  lic: USER:   hmr                  HOSTNAME: BF-201911211153 
  lic: HOSTID: "70c94e3215e4 0c9d922ee649 00ffaabbccdd 005056c00001 005056c00008
  70c94e31fa78 12c94e3
  lic: Using FLEXlm license files: 
  lic: D:\synopsys\Hspice_G-2012.06-SP1\license.dat 
  lic: Feature has expired. Feature:       hspice License path:  D:\synopsys\Hsp
 i 
  lic: License for hspice has expired on 31-dec-2019 
  lic: Unable to checkout (hspice) 
  lic:   
  lic:  
  lic: FLEXlm: v10.9.8 
  lic: USER:   hmr                  HOSTNAME: BF-201911211153 
  lic: HOSTID: "70c94e3215e4 0c9d922ee649 00ffaabbccdd 005056c00001 005056c00008
  70c94e31fa78 12c94e3
  lic: Using FLEXlm license files: 
  lic: D:\synopsys\Hspice_G-2012.06-SP1\license.dat 
  lic: Feature has expired. Feature:       hspicewin License path:  D:\synopsys\
 H 
  lic: License for hspicewin has expired on 31-dec-2019 
  lic: Unable to checkout (hspicewin) 
  lic:   
 lic: total license checkout elapse time:        0.12(s)
