 ****** HSPICE -- G-2012.06-SP1 32-BIT (Aug 27 2012) win32 ******               
  Copyright (C) 2012 Synopsys, Inc. All Rights Reserved.                        
  Unpublished-rights reserved under US copyright laws.
  This program is protected by law and is subject to the
  terms and conditions of the license agreement from Synopsys.
  Use of this program is your acceptance to be bound by the
  license agreement. HSPICE is the trademark of Synopsys, Inc.
  Input File: sram.sp                                                           
  Command line options: -i sram.sp -o sram.lis
  lic:  
  lic: FLEXlm: v10.9.8 
  lic: USER:   hmr                  HOSTNAME: BF-201911211153 
  lic: HOSTID: "70c94e3215e4 0c9d922ee649 00ffaabbccdd 005056c00001 005056c00008
  70c94e31fa78 12c94e3
  lic: Using FLEXlm license file: 
  lic: D:\synopsys\Hspice_G-2012.06-SP1\license.dat 
  lic: Checkout 1 hspice 
  lic: License/Maintenance for hspice will expire on 31-dec-2019/2019.12 
  lic: NODE LOCKED license on hostid "70c94e3215e4 0c9d922ee649 00ffaabbccdd 005
 056c00001 005056c0000
  lic:   
 Init: read install configuration file: d:\synopsys\Hspice_G-2012.06-SP1\meta.cfg
 ***************************************************************************
 ***        model parameters  model name:   0:pch.6    model type:pmos   ***
 ***************************************************************************

   *** general parameters ***
    deriv=   0.           

   ***  level 49  model parameters  ***

       hspver=     2000.2               level=         49         
      version=        3.2            paramchk=          1         
       apwarn=          1                lite=          0         
       vgslim=          0             binUnit=          2         
       capMod=          3               xpart=          0         
       mobMod=          1              nqsMod=          0         
       stiMod=          0                 elm=          5         
     sfvtflag=          0                 tox=  4.08e-009 meter   
           xj=   1.5e-007 meter       binflag=          0         
         lmin=   1.8e-007 meter          lmax=     5e-007 meter   
         wmin=   1.2e-006 meter          wmax= 0.00010001 meter   
         lref=   1.8e-007 meter          wref=   1.2e-006 meter   
         lint=     2e-008 meter          wint=     2e-008 meter   
        lmult=          1               wmult=          1         
           ll=          0                 lln=         -1         
           lw=          0                 lwn=          1         
          lwl=          0                  wl=          0         
          wln=          1                  ww=          0         
          wwn=          1                 wwl=          0         
          dwg=          0 m/V             dwb=          0 m/V^1/2 
           xl=  -1.3e-008                  xw=          0         
           a0=    1.23211                 ags= -0.0766403 V^-1    
           b0=          0 meter            b1=          0 meter   
         keta= 0.00736693 V^-1           voff=   -0.11489 V       
        ngate=     5e+020 cm^-3           vbx=          0 V       
          vbm=         -3 V                xt=  1.55e-007 meter   
         vth0=  -0.441629 V               nch=  4.01e+017 cm^-3   
         nsub=     6e+016 cm^-3           nlx=          0 meter   
       gamma1=          0 V^-1/2       gamma2=          0 V^-1/2  
           k1=    0.64296 V^1/2            k2=      -0.01         
           k3=          0                 k3b=          0 V^-1    
           w0=          0 meter          dvt0=          0         
         dvt1=          0                dvt2=          0 V^-1    
        dvt0w=          0 meter^-1      dvt1w=          0 meter^-1
        dvt2w=          0 V^-1           dsub=          0         
         eta0=     0.0002                etab= 0.00125102 V^-1    
           u0= 0.00842881 m^2/V/sec         ua=3.32912e-011 m/V     
           ub=1.35351e-018 (m/V)^2          uc=-1.09418e-010 V^-1    
         vsat=      68345 m/sec            a1=          0 v^-1    
           a2=        0.4               delta=       0.01 V       
         rdsw=        500 ohm-um         prwg=          0 V^-1    
         prwb=          0 V^-1/2           wr=          1         
         pclm=    1.23952             pdiblc1=0.000913957         
      pdiblc2=     1e-005             pdiblcb=          0 V^-1    
       pscbe1=     2e+008 V/m          pscbe2=4.79375e-008 V/m     
        drout=          0                pvag=          0         
      nfactor=          1                cdsc=          0 f/m^2   
        cdscb=          0 f/V/m^2       cdscd=          0 f/V/m^2 
          cit=0.000289738 f/m^2        alpha0=          0 m/V     
        beta0=     23.154 V               dlc=     6e-009 meter   
          dwc=     5e-009 meter           clc=     1e-007 meter   
          cle=        0.6                cgso=   3.3e-010 f/m     
         cgdo=   3.3e-010 f/m            cgbo=     1e-013 f/m     
         cgsl=          0 f/m            cgdl=          0 f/m     
       ckappa=        0.6                  cf=          0 f/m     
         acde=       0.84 m/V            moin=         15 V^1/2   
         toxm=  4.08e-009 m            dtoxcv=          0 m       
          vfb=         -1 V            alpha1=     8.0492 1/V     
         ijth=        0.1 A              noff=          1         
       voffcv=          0                 tcj=      0.001 1/K     
        tcjsw=     0.0005 1/K          tcjswg=     0.0005 1/K     
          tpb=      0.002 V/K           tpbsw=      0.002 V/K     
       tpbswg=      0.002 V/K             llc=     -0.048         
          lwc=          0                lwlc=          0         
          wlc=          0                 wwc=          0         
         wwlc=          0                tnom=     298.15 K       
          kt1=  -0.269295 V              kt1l=          0         
          kt2=  -0.024584                 ute=  -0.897631         
          ua1=1.21235e-009 m/V             ub1=-1.8111e-018 (m/V)^2 
          uc1=-1.17323e-011 m/V^2            at=      10000 m/s     
          prt=          0         
          using Berkeley noise model       noiMod=          2         
         noia=  7.29e+018                noib=      83200         
         noic=   1.7e-012                  em=   4.2e+007         
           ef=       1.05                  af=          1         
           kf=          0              gdsnoi=-1.23457e-029         
          using Berkeley diodes          using ACM 
          acm=        12                 hdif= 1.77e-007 meter    
         ldif= 1.24e-007 meter             js= 2.74e-007 amp/m^2  
          jsw=  5.6e-013 amp/m            xti=         3          
           nj=         1                   cj=   0.00107 f/m^2    
           mj=     0.418                   pb=    0.7881 V        
         cjsw= 2.36e-010 f/m             mjsw=     0.268          
          php (not used)                  pbsw=     0.738 V        
       cjgate (not used)                 cjswg= 4.11e-010 f/m      
        mjswg=     0.268                pbswg=       0.6 V        
          la0=6.4453e-008                lags=2.60385e-007         
        lketa=7.99225e-010               lvoff=1.16884e-009         
        lvth0=-5.9422e-009                 lk1=4.22397e-009         
        letab=-5.6132e-010                 lu0=-1.63448e-010         
          lua=-1.34556e-016                 lub=8.26158e-026         
          luc=1.69654e-017               lvsat= 0.00617105         
        lpclm=-1.33214e-009            lpdiblc1=9.18372e-010         
      lpscbe2=-3.54806e-015                lcit=1.4458e-010         
       lbeta0=2.71991e-008                lkt1=-1.92321e-010         
         lkt2=5.92946e-010                lute=5.23237e-008         
         lua1=6.60948e-017                lub1=5.70295e-026         
         luc1=-6.66459e-018             lalpha1=2.47348e-007         
          wa0=-2.59353e-007                wags=-2.69453e-007         
        wketa=2.92467e-008               wvoff=2.50868e-008         
        wvth0=1.90905e-008                 wk1=1.86786e-008         
        wetab=-3.17736e-010                 wu0=-1.52085e-009         
          wua=-2.02904e-016                 wub=-3.11036e-026         
          wuc=7.5919e-018               wvsat=0.000214989         
        wpclm=-1.27845e-008            wpdiblc1=-2.9492e-010         
         wcit=1.05792e-010              wbeta0=-6.70445e-007         
         wkt1=3.01497e-008                wkt2=7.36279e-009         
         wute=2.16613e-007                wua1=1.01648e-016         
         wub1=-1.1394e-025                wuc1=-2.49984e-017         
      walpha1=-2.55976e-006                 pa0=7.89579e-014         
         pags=6.75684e-014               pketa=-8.33134e-015         
        pvoff=-6.87097e-015               pvth0=-4.42537e-015         
          pk1=5.12411e-016               petab=1.18553e-016         
          pu0=2.24995e-016                 pua=8.45944e-023         
          pub=-3.65675e-032                 puc=-2.79497e-024         
        pvsat=-1.21115e-009               ppclm=3.44713e-014         
     ppdiblc1=-1.72356e-017                pcit=-1.05976e-016         
       pbeta0=1.00153e-013                pkt1=-2.67851e-015         
         pkt2=-1.78878e-015                pute=-5.90903e-014         
         pua1=-1.17622e-022                pub1=3.09776e-032         
         puc1=2.94636e-024             palpha1=2.46889e-013         
 ***************************************************************************
 ***        model parameters  model name:   0:nch.6    model type:nmos   ***
 ***************************************************************************

   *** general parameters ***
    deriv=   0.           

   ***  level 49  model parameters  ***

       hspver=     2000.2               level=         49         
      version=        3.2            paramchk=          1         
       apwarn=          1                lite=          0         
       vgslim=          0             binUnit=          2         
       capMod=          3               xpart=          0         
       mobMod=          1              nqsMod=          0         
       stiMod=          0                 elm=          5         
     sfvtflag=          0                 tox=  4.08e-009 meter   
           xj=   1.5e-007 meter       binflag=          0         
         lmin=   1.8e-007 meter          lmax=     5e-007 meter   
         wmin=   1.2e-006 meter          wmax= 0.00010001 meter   
         lref=   1.8e-007 meter          wref=   1.2e-006 meter   
         lint=   1.3e-008 meter          wint=     2e-008 meter   
        lmult=          1               wmult=          1         
           ll=          0                 lln=         -1         
           lw=          0                 lwn=          1         
          lwl=          0                  wl=          0         
          wln=          1                  ww=          0         
          wwn=          1                 wwl=          0         
          dwg=          0 m/V             dwb=          0 m/V^1/2 
           xl=  -1.3e-008                  xw=          0         
           a0=    0.81473                 ags=   0.150321 V^-1    
           b0=          0 meter            b1=          0 meter   
         keta= -0.0282632 V^-1           voff=  -0.106833 V       
        ngate=     5e+020 cm^-3           vbx=          0 V       
          vbm=         -3 V                xt=  1.55e-007 meter   
         vth0=   0.457256 V               nch=  4.01e+017 cm^-3   
         nsub=     6e+016 cm^-3           nlx=          0 meter   
       gamma1=          0 V^-1/2       gamma2=          0 V^-1/2  
           k1=   0.593433 V^1/2            k2=      -0.01         
           k3=          0                 k3b=          0 V^-1    
           w0=          0 meter          dvt0=          0         
         dvt1=          0                dvt2=          0 V^-1    
        dvt0w=          0 meter^-1      dvt1w=          0 meter^-1
        dvt2w=          0 V^-1           dsub=          0         
         eta0=     0.0001                etab= 0.00155903 V^-1    
           u0=    0.03825 m^2/V/sec         ua=-1.212e-009 m/V     
           ub=2.8771e-018 (m/V)^2          uc=1.14741e-010 V^-1    
         vsat=    91749.7 m/sec            a1=          0 v^-1    
           a2=       0.99               delta=       0.01 V       
         rdsw=      164.4 ohm-um         prwg=          0 V^-1    
         prwb=          0 V^-1/2           wr=          1         
         pclm=   0.945371             pdiblc1=-0.00240527         
      pdiblc2=     1e-005             pdiblcb=          0 V^-1    
       pscbe1=     2e+008 V/m          pscbe2=     1e-008 V/m     
        drout=          0                pvag=          0         
      nfactor=          1                cdsc=          0 f/m^2   
        cdscb=          0 f/V/m^2       cdscd=          0 f/V/m^2 
          cit=     0.0008 f/m^2        alpha0=          0 m/V     
        beta0=    11.7225 V               dlc=     6e-009 meter   
          dwc=     3e-009 meter           clc=     1e-007 meter   
          cle=        0.6                cgso=  3.52e-010 f/m     
         cgdo=  3.52e-010 f/m            cgbo=     1e-013 f/m     
         cgsl=          0 f/m            cgdl=          0 f/m     
       ckappa=        0.6                  cf=          0 f/m     
         acde=        0.7 m/V            moin=         15 V^1/2   
         toxm=  4.08e-009 m            dtoxcv=          0 m       
          vfb=         -1 V            alpha1=    0.50273 1/V     
         ijth=        0.1 A              noff=          1         
       voffcv=          0                 tcj=    0.00105 1/K     
        tcjsw=   0.000463 1/K          tcjswg=   0.000463 1/K     
          tpb=    0.00164 V/K           tpbsw=   0.000526 V/K     
       tpbswg=   0.000526 V/K             llc=     -0.048         
          lwc=          0                lwlc=          0         
          wlc=          0                 wwc=          0         
         wwlc=          0                tnom=     298.15 K       
          kt1=  -0.229017 V              kt1l=          0         
          kt2= -0.0225217                 ute=   -1.74216         
          ua1=2.27262e-009 m/V             ub1=-3.83173e-018 (m/V)^2 
          uc1=-1.3238e-010 m/V^2            at=      20000 m/s     
          prt=          0         
          using Berkeley noise model       noiMod=          2         
         noia=  1.73e+020                noib=        871         
         noic=   2.1e-013                  em=   4.2e+007         
           ef=       0.86                  af=          1         
           kf=          0              gdsnoi=-1.23457e-029         
          using Berkeley diodes          using ACM 
          acm=        12                 hdif= 1.77e-007 meter    
         ldif= 1.24e-007 meter             js= 3.23e-007 amp/m^2  
          jsw=  6.7e-013 amp/m            xti=         3          
           nj=         1                   cj=   0.00101 f/m^2    
           mj=     0.349                   pb=    0.6302 V        
         cjsw= 1.94e-010 f/m             mjsw=     0.162          
          php (not used)                  pbsw=       0.6 V        
       cjgate (not used)                 cjswg= 3.51e-010 f/m      
        mjswg=      0.41                pbswg=       0.6 V        
          la0=-1.61673e-008                lags=4.47151e-008         
        lketa=-6.0621e-009               lvoff=-3.73063e-009         
        lvth0=7.45868e-009                 lk1=-1.12486e-008         
        letab=-7.58355e-010                 lu0=1.01692e-009         
          lua=1.15414e-018                 lub=-8.86285e-027         
          luc=4.2275e-018               lvsat=-0.00164857         
        lpclm=8.59103e-008            lpdiblc1=1.87354e-009         
       lbeta0=2.65636e-008                lkt1=6.4471e-009         
         lkt2=7.33228e-010                lute=4.93712e-008         
         lua1=-1.35883e-016                lub1=4.71281e-025         
         luc1=2.8824e-017             lalpha1=1.00359e-008         
          wa0=-4.19613e-007                wags=6.80661e-010         
        wketa=-1.28558e-008               wvoff=6.93175e-009         
        wvth0=2.87117e-009                 wk1=-3.3073e-009         
        wetab=-6.47287e-011                 wu0=-4.09747e-009         
          wua=2.65905e-016                 wub=-8.09946e-025         
          wuc=-5.2327e-017               wvsat=-0.00920062         
        wpclm=4.42015e-007            wpdiblc1=-8.42724e-012         
       wbeta0=-5.394e-007                wkt1=-5.19666e-009         
         wkt2=-3.50723e-009                wute=4.81132e-007         
         wua1=-7.98372e-016                wub1=2.68931e-024         
         wuc1=8.21893e-017             walpha1=-1.47023e-007         
          pa0=1.08222e-013                pags=-9.57413e-015         
        pketa=7.08859e-015               pvoff=1.33344e-016         
        pvth0=2.18685e-015                 pk1=6.4272e-015         
        petab=-4.38703e-018                 pu0=-2.96025e-016         
          pua=-5.60046e-023                 pub=2.96025e-032         
          puc=-1.6428e-024               pvsat=2.48021e-009         
        ppclm=-4.64038e-014            ppdiblc1=1.10409e-016         
       pbeta0=1.86682e-014                pkt1=-2.50687e-015         
         pkt2=6.13384e-017                pute=-6.0805e-014         
         pua1=1.25344e-022                pub1=-4.25102e-031         
         puc1=-2.51487e-023             palpha1=1.2001e-015         
 ***************************************************************************
 ***        model parameters  model name:   0:nch.0    model type:nmos   ***
 ***************************************************************************

   *** general parameters ***
    deriv=   0.           

   ***  level 49  model parameters  ***

       hspver=     2000.2               level=         49         
      version=        3.2            paramchk=          1         
       apwarn=          1                lite=          0         
       vgslim=          0             binUnit=          2         
       capMod=          3               xpart=          0         
       mobMod=          1              nqsMod=          0         
       stiMod=          0                 elm=          5         
     sfvtflag=          0                 tox=  4.08e-009 meter   
           xj=   1.5e-007 meter       binflag=          0         
         lmin=   1.8e-007 meter          lmax=     5e-007 meter   
         wmin=   2.2e-007 meter          wmax=     5e-007 meter   
         lref=   1.8e-007 meter          wref=   2.2e-007 meter   
         lint=   1.3e-008 meter          wint=     2e-008 meter   
        lmult=          1               wmult=          1         
           ll=          0                 lln=         -1         
           lw=          0                 lwn=          1         
          lwl=          0                  wl=          0         
          wln=          1                  ww=          0         
          wwn=          1                 wwl=          0         
          dwg=          0 m/V             dwb=          0 m/V^1/2 
           xl=  -1.3e-008                  xw=          0         
           a0=   0.980724                 ags=  -0.944081 V^-1    
           b0=          0 meter            b1=          0 meter   
         keta= 0.00872853 V^-1           voff= -0.0923414 V       
        ngate=     5e+020 cm^-3           vbx=          0 V       
          vbm=         -3 V                xt=  1.55e-007 meter   
         vth0=   0.455918 V               nch=  4.01e+017 cm^-3   
         nsub=     6e+016 cm^-3           nlx=          0 meter   
       gamma1=          0 V^-1/2       gamma2=          0 V^-1/2  
           k1=   0.604795 V^1/2            k2=      -0.01         
           k3=          0                 k3b=          0 V^-1    
           w0=          0 meter          dvt0=          0         
         dvt1=          0                dvt2=          0 V^-1    
        dvt0w=          0 meter^-1      dvt1w=          0 meter^-1
        dvt2w=          0 V^-1           dsub=          0         
         eta0=     0.0001                etab= 0.00108981 V^-1    
           u0=  0.0318467 m^2/V/sec         ua=-1.05004e-009 m/V     
           ub=2.29044e-018 (m/V)^2          uc=1.04508e-010 V^-1    
         vsat=     111595 m/sec            a1=          0 v^-1    
           a2=       0.99               delta=       0.01 V       
         rdsw=      164.4 ohm-um         prwg=          0 V^-1    
         prwb=          0 V^-1/2           wr=          1         
         pclm=   0.504858             pdiblc1=-0.00247951         
      pdiblc2=     1e-005             pdiblcb=          0 V^-1    
       pscbe1=     2e+008 V/m          pscbe2=     1e-008 V/m     
        drout=          0                pvag=          0         
      nfactor=          1                cdsc=          0 f/m^2   
        cdscb=          0 f/V/m^2       cdscd=          0 f/V/m^2 
          cit=     0.0008 f/m^2        alpha0=          0 m/V     
        beta0=     12.433 V               dlc=     6e-009 meter   
          dwc=     3e-009 meter           clc=     1e-007 meter   
          cle=        0.6                cgso=  3.52e-010 f/m     
         cgdo=  3.52e-010 f/m            cgbo=     1e-013 f/m     
         cgsl=          0 f/m            cgdl=          0 f/m     
       ckappa=        0.6                  cf=          0 f/m     
         acde=          1 m/V            moin=         15 V^1/2   
         toxm=  4.08e-009 m            dtoxcv=          0 m       
          vfb=         -1 V            alpha1=   0.775378 1/V     
         ijth=        0.1 A              noff=          1         
       voffcv=          0                 tcj=    0.00105 1/K     
        tcjsw=   0.000463 1/K          tcjswg=   0.000463 1/K     
          tpb=    0.00164 V/K           tpbsw=   0.000526 V/K     
       tpbswg=   0.000526 V/K             llc=     -0.048         
          lwc=          0                lwlc=          0         
          wlc=          0                 wwc=          0         
         wwlc=          0                tnom=     298.15 K       
          kt1=   -0.19849 V              kt1l=          0         
          kt2= -0.0335342                 ute=   -1.55811         
          ua1=2.41508e-009 m/V             ub1=-3.65637e-018 (m/V)^2 
          uc1=-1.95627e-010 m/V^2            at=    6563.75 m/s     
          prt=          0         
          using Berkeley noise model       noiMod=          2         
         noia=  1.73e+020                noib=        871         
         noic=   2.1e-013                  em=   4.2e+007         
           ef=       0.86                  af=          1         
           kf=          0              gdsnoi=          1         
          using Berkeley diodes          using ACM 
          acm=        12                 hdif= 1.77e-007 meter    
         ldif= 1.24e-007 meter             js= 3.23e-007 amp/m^2  
          jsw=  6.7e-013 amp/m            xti=         3          
           nj=         1                   cj=   0.00101 f/m^2    
           mj=     0.349                   pb=    0.6302 V        
         cjsw= 1.94e-010 f/m             mjsw=     0.162          
          php (not used)                  pbsw=       0.6 V        
       cjgate (not used)                 cjswg= 3.51e-010 f/m      
        mjswg=      0.41                pbswg=       0.6 V        
          la0=-9.12988e-008                lags=3.50618e-007         
        lketa=-2.10851e-008               lvoff=-6.59296e-009         
        lvth0=1.63373e-008                 lk1=-8.18026e-009         
        letab=-6.01378e-010                 lu0=-1.94423e-010         
          lua=-6.93973e-017                 lub=-6.79028e-027         
          luc=-7.95638e-018               lvsat=-0.00487058         
        lpclm=2.45712e-007            lpdiblc1=1.97796e-009         
       lbeta0=-1.07078e-007                lkt1=1.27971e-009         
         lkt2=1.94307e-009                lute=7.21975e-008         
         lua1=-1.32411e-016                lub1=4.17015e-025         
         luc1=3.08623e-017                 lat= 0.00305273         
      lalpha1=-4.01497e-008                 wa0=-1.42206e-008         
         wags=3.71417e-007               wketa=-7.82677e-009         
        wvoff=-1.46157e-009               wvth0=-8.99711e-009         
          wk1=-1.32957e-008               wetab=7.83593e-011         
          wu0=2.22954e-009                 wua=1.49474e-017         
          wub=-5.05339e-026                 wuc=-2.22518e-017         
        wvsat= -0.0061441               wpclm=3.19439e-007         
     wpdiblc1=1.39609e-010              wbeta0=-1.62532e-007         
         wkt1=-1.81192e-008                wkt2=1.67849e-009         
         wute=9.05255e-009                wua1=-3.84835e-017         
         wub1=1.8574e-025                wuc1=3.09877e-017         
          wat= 0.00516724             walpha1=-6.03682e-008         
          pa0=4.71533e-015                pags=-8.7561e-014         
        pketa=4.16571e-015               pvoff=-1.44163e-016         
        pvth0=-1.44163e-015                 pk1=-2.64299e-016         
        petab=-1.91376e-017                 pu0=3.94045e-016         
          pua=5.10577e-024                 pub=-6.96788e-033         
          puc=1.06981e-024               pvsat=1.68731e-009         
        ppclm=-4.88352e-014            ppdiblc1=-1.05119e-017         
       pbeta0=4.08462e-014                pkt1=2.35466e-015         
         pkt2=-4.44502e-017                pute=-1.65787e-014         
         pua1=-2.16244e-024                pub1=-2.52345e-032         
         puc1=-5.12842e-024                 pat=-9.37059e-010         
      palpha1=1.38156e-014         
 

  **warning** (sram.sp:73) Unable to find referenced node vd; Output variable ignored. Specify a valid node.
  
 **warning**  No DC path to ground from node        0:wl               defined in subckt 0               ; Connected by HSPICE with gdcpath


      
 *****************************************************************
 ******  option summary
 ******
 runlvl  = 3         bypass  = 2         
 ******  
 *hw 6, problem 1, determination of snm graphically

  ******  dc transfer curves tnom=  25.000 temp=  25.000 *****
x

      u         voltage      voltage      voltage      voltage    
                    qd           qbd          v1           v2     
   -1.76777       0.           2.5000       1.7678       1.7678   
   -1.75777       0.           2.5000       1.7778       1.7578   
   -1.74777       0.           2.5000       1.7878       1.7478   
   -1.73777       0.           2.5000       1.7978       1.7378   
   -1.72777       0.           2.5000       1.8078       1.7278   
   -1.71777       0.           2.5000       1.8178       1.7178   
   -1.70777       0.           2.5000       1.8278       1.7078   
   -1.69777       0.           2.5000       1.8378       1.6978   
   -1.68777       0.           2.5000       1.8478       1.6878   
   -1.67777       0.           2.5000       1.8578       1.6778   
   -1.66777       0.           2.5000       1.8678       1.6678   
   -1.65777       0.           2.5000       1.8778       1.6578   
   -1.64777     581.7997n      2.5000       1.8878       1.6478   
   -1.63777     872.6614n      2.5000       1.8978       1.6378   
   -1.62777       1.3080u      2.5000       1.9078       1.6278   
   -1.61777       1.9579u      2.5000       1.9178       1.6178   
   -1.60777       2.9248u      2.5000       1.9278       1.6078   
   -1.59777       4.3580u      2.5000       1.9378       1.5978   
   -1.58777       6.4729u      2.5000       1.9478       1.5878   
   -1.57777       9.5778u      2.5000       1.9577       1.5778   
   -1.56777      14.1097u      2.5000       1.9677       1.5678   
   -1.55777      20.6812u      2.5000       1.9777       1.5578   
   -1.54777      30.1418u      2.4999       1.9877       1.5478   
   -1.53777      43.6556u      2.4999       1.9976       1.5378   
   -1.52777      62.7996u      2.4999       2.0076       1.5279   
   -1.51777      89.6844u      2.4998       2.0175       1.5179   
   -1.50777     127.1001u      2.4998       2.0274       1.5079   
   -1.49777     178.6822u      2.4996       2.0373       1.4980   
   -1.48777     249.0867u      2.4995       2.0471       1.4881   
   -1.47777     344.1454u      2.4993       2.0568       1.4783   
   -1.46777     470.9582u      2.4991       2.0664       1.4684   
   -1.45777     637.8696u      2.4987       2.0760       1.4587   
   -1.44777     854.2823u      2.4983       2.0853       1.4490   
   -1.43777       1.1303m      2.4977       2.0946       1.4394   
   -1.42777       1.4762m      2.4970       2.1036       1.4299   
   -1.41777       1.9018m      2.4962       2.1124       1.4205   
   -1.40777       2.4161m      2.4951       2.1209       1.4112   
   -1.39777       3.0264m      2.4939       2.1292       1.4020   
   -1.38777       3.7385m      2.4925       2.1371       1.3931   
   -1.37777       4.5564m      2.4908       2.1448       1.3842   
   -1.36777       5.4824m      2.4890       2.1522       1.3755   
   -1.35777       6.5171m      2.4869       2.1593       1.3670   
   -1.34777       7.6601m      2.4847       2.1661       1.3586   
   -1.33777       8.9103m      2.4822       2.1726       1.3504   
   -1.32777      10.2658m      2.4796       2.1789       1.3423   
   -1.31777      11.7244m      2.4767       2.1849       1.3343   
   -1.30777      13.2838m      2.4738       2.1906       1.3266   
   -1.29777      14.9417m      2.4706       2.1962       1.3189   
   -1.28777      16.6960m      2.4673       2.2015       1.3114   
   -1.27777      18.5447m      2.4638       2.2066       1.3040   
   -1.26777      20.4861m      2.4603       2.2116       1.2967   
   -1.25777      22.5188m      2.4565       2.2163       1.2896   
   -1.24777      24.6416m      2.4527       2.2209       1.2826   
   -1.23777      26.8534m      2.4487       2.2253       1.2757   
   -1.22777      29.1536m      2.4446       2.2295       1.2690   
   -1.21777      31.5416m      2.4405       2.2336       1.2624   
   -1.20777      34.0172m      2.4362       2.2375       1.2559   
   -1.19777      36.5802m      2.4318       2.2413       1.2495   
   -1.18777      39.2308m      2.4273       2.2449       1.2432   
   -1.17777      41.9691m      2.4226       2.2484       1.2371   
   -1.16777      44.7954m      2.4179       2.2517       1.2311   
   -1.15777      47.7103m      2.4131       2.2549       1.2252   
   -1.14777      50.7144m      2.4082       2.2580       1.2195   
   -1.13777      53.8085m      2.4033       2.2609       1.2139   
   -1.12777      56.9933m      2.3982       2.2638       1.2084   
   -1.11777      60.2699m      2.3930       2.2664       1.2030   
   -1.10777      63.6392m      2.3877       2.2690       1.1978   
   -1.09777      67.1025m      2.3824       2.2714       1.1927   
   -1.08777      70.6609m      2.3769       2.2737       1.1877   
   -1.07777      74.3157m      2.3714       2.2759       1.1829   
   -1.06777      78.0685m      2.3657       2.2779       1.1782   
   -1.05777      81.9207m      2.3600       2.2798       1.1736   
   -1.04777      85.8738m      2.3542       2.2816       1.1692   
   -1.03777      89.9296m      2.3483       2.2832       1.1649   
   -1.02777      94.0897m      2.3423       2.2847       1.1608   
   -1.01777      98.3561m      2.3362       2.2861       1.1569   
   -1.00777     102.7305m      2.3300       2.2873       1.1530   
 -997.76695m    107.2151m      2.3237       2.2884       1.1494   
 -987.76695m    111.8118m      2.3173       2.2894       1.1459   
 -977.76695m    116.5228m      2.3108       2.2902       1.1426   
 -967.76695m    121.3503m      2.3043       2.2909       1.1394   
 -957.76695m    126.2966m      2.2976       2.2915       1.1364   
 -947.76695m    131.3640m      2.2908       2.2919       1.1335   
 -937.76695m    136.5549m      2.2839       2.2922       1.1309   
 -927.76695m    141.8719m      2.2769       2.2923       1.1284   
 -917.76695m    147.3174m      2.2699       2.2923       1.1261   
 -907.76695m    152.8941m      2.2627       2.2921       1.1240   
 -897.76695m    158.6047m      2.2554       2.2918       1.1221   
 -887.76695m    164.4518m      2.2480       2.2914       1.1203   
 -877.76695m    170.4381m      2.2405       2.2908       1.1188   
 -867.76695m    176.5666m      2.2329       2.2900       1.1175   
 -857.76695m    182.8400m      2.2251       2.2891       1.1163   
 -847.76695m    189.2612m      2.2173       2.2880       1.1154   
 -837.76695m    195.8331m      2.2093       2.2867       1.1147   
 -827.76695m    202.5587m      2.2013       2.2853       1.1142   
 -817.76695m    209.4408m      2.1931       2.2837       1.1140   
 -807.76695m    216.4823m      2.1848       2.2820       1.1139   
 -797.76695m    223.6863m      2.1764       2.2801       1.1141   
 -787.76695m    231.0556m      2.1678       2.2780       1.1145   
 -777.76695m    238.5931m      2.1592       2.2757       1.1152   
 -767.76695m    246.3018m      2.1504       2.2733       1.1161   
 -757.76695m    254.1844m      2.1414       2.2707       1.1172   
 -747.76695m    262.2437m      2.1324       2.2679       1.1186   
 -737.76695m    270.4825m      2.1232       2.2649       1.1203   
 -727.76695m    278.9033m      2.1139       2.2617       1.1222   
 -717.76695m    287.5089m      2.1045       2.2584       1.1244   
 -707.76695m    296.3015m      2.0949       2.2548       1.1268   
 -697.76695m    305.2836m      2.0852       2.2511       1.1295   
 -687.76695m    314.4573m      2.0753       2.2472       1.1325   
 -677.76695m    323.8248m      2.0653       2.2430       1.1357   
 -667.76695m    333.3877m      2.0552       2.2387       1.1392   
 -657.76695m    343.1478m      2.0449       2.2342       1.1431   
 -647.76695m    353.1064m      2.0345       2.2295       1.1471   
 -637.76695m    363.2644m      2.0240       2.2245       1.1515   
 -627.76695m    373.6224m      2.0133       2.2194       1.1561   
 -617.76695m    384.1804m      2.0024       2.2141       1.1611   
 -607.76695m    394.9378m      1.9914       2.2085       1.1663   
 -597.76695m    405.8928m      1.9803       2.2028       1.1718   
 -587.76695m    417.0430m      1.9690       2.1968       1.1776   
 -577.76695m    428.3843m      1.9576       2.1907       1.1836   
 -567.76695m    439.9114m      1.9460       2.1843       1.1899   
 -557.76695m    451.6174m      1.9343       2.1778       1.1965   
 -547.76695m    463.4939m      1.9225       2.1711       1.2032   
 -537.76695m    475.5312m      1.9106       2.1642       1.2103   
 -527.76695m    487.7187m      1.8985       2.1571       1.2175   
 -517.76695m    500.0453m      1.8863       2.1499       1.2249   
 -507.76695m    512.4996m      1.8740       2.1425       1.2326   
 -497.76695m    525.0704m      1.8616       2.1350       1.2403   
 -487.76695m    537.7471m      1.8491       2.1273       1.2483   
 -477.76695m    550.5195m      1.8365       2.1195       1.2563   
 -467.76695m    563.3783m      1.8239       2.1116       1.2645   
 -457.76695m    576.3152m      1.8111       2.1036       1.2728   
 -447.76695m    589.3223m      1.7983       2.0954       1.2812   
 -437.76695m    602.3927m      1.7854       2.0872       1.2897   
 -427.76695m    615.5204m      1.7725       2.0789       1.2982   
 -417.76695m    628.6996m      1.7595       2.0706       1.3069   
 -407.76695m    641.9255m      1.7465       2.0621       1.3156   
 -397.76695m    655.1937m      1.7334       2.0536       1.3244   
 -387.76695m    668.5001m      1.7203       2.0450       1.3332   
 -377.76695m    681.8413m      1.7071       2.0364       1.3420   
 -367.76695m    695.2142m      1.6939       2.0277       1.3509   
 -357.76695m    708.6159m      1.6806       2.0190       1.3599   
 -347.76695m    722.0438m      1.6674       2.0102       1.3689   
 -337.76695m    735.4957m      1.6540       2.0014       1.3779   
 -327.76695m    748.9695m      1.6407       1.9925       1.3870   
 -317.76695m    762.4634m      1.6274       1.9837       1.3961   
 -307.76695m    775.9756m      1.6140       1.9747       1.4052   
 -297.76695m    789.5046m      1.6006       1.9658       1.4143   
 -287.76695m    803.0491m      1.5871       1.9568       1.4234   
 -277.76695m    816.6078m      1.5737       1.9478       1.4326   
 -267.76695m    830.1794m      1.5602       1.9387       1.4418   
 -257.76695m    843.7630m      1.5467       1.9297       1.4510   
 -247.76695m    857.3575m      1.5332       1.9206       1.4603   
 -237.76695m    870.9620m      1.5197       1.9115       1.4695   
 -227.76695m    884.5757m      1.5062       1.9023       1.4787   
 -217.76695m    898.1979m      1.4927       1.8932       1.4880   
 -207.76695m    911.8277m      1.4791       1.8840       1.4973   
 -197.76695m    925.4645m      1.4656       1.8748       1.5066   
 -187.76695m    939.1077m      1.4520       1.8656       1.5159   
 -177.76695m    952.7568m      1.4384       1.8564       1.5252   
 -167.76695m    966.4110m      1.4248       1.8472       1.5345   
 -157.76695m    980.0700m      1.4112       1.8380       1.5438   
 -147.76695m    993.7332m      1.3976       1.8287       1.5531   
 -137.76695m      1.0074       1.3840       1.8195       1.5624   
 -127.76695m      1.0211       1.3704       1.8102       1.5718   
 -117.76695m      1.0347       1.3567       1.8009       1.5811   
 -107.76695m      1.0484       1.3431       1.7916       1.5905   
  -97.76695m      1.0621       1.3294       1.7824       1.5998   
  -87.76695m      1.0758       1.3158       1.7731       1.6091   
  -77.76695m      1.0895       1.3021       1.7637       1.6185   
  -67.76695m      1.1031       1.2885       1.7544       1.6278   
  -57.76695m      1.1168       1.2748       1.7451       1.6372   
  -47.76695m      1.1305       1.2612       1.7358       1.6465   
  -37.76695m      1.1442       1.2475       1.7265       1.6559   
  -27.76695m      1.1579       1.2338       1.7171       1.6652   
  -17.76695m      1.1715       1.2202       1.7078       1.6746   
   -7.76695m      1.1852       1.2065       1.6984       1.6839   
    2.23305m      1.1989       1.1928       1.6891       1.6933   
   12.23305m      1.2126       1.1791       1.6798       1.7026   
   22.23305m      1.2263       1.1654       1.6704       1.7120   
   32.23305m      1.2399       1.1518       1.6611       1.7213   
   42.23305m      1.2536       1.1381       1.6517       1.7306   
   52.23305m      1.2673       1.1244       1.6424       1.7400   
   62.23305m      1.2809       1.1107       1.6330       1.7493   
   72.23305m      1.2946       1.0970       1.6237       1.7586   
   82.23305m      1.3082       1.0833       1.6143       1.7679   
   92.23305m      1.3219       1.0697       1.6050       1.7772   
  102.23305m      1.3355       1.0560       1.5956       1.7865   
  112.23305m      1.3492       1.0423       1.5863       1.7958   
  122.23305m      1.3628       1.0286       1.5769       1.8051   
  132.23305m      1.3764       1.0150       1.5676       1.8143   
  142.23305m      1.3901       1.0013       1.5583       1.8236   
  152.23305m      1.4037     987.6306m      1.5490       1.8329   
  162.23305m      1.4173     973.9692m      1.5396       1.8421   
  172.23305m      1.4309     960.3123m      1.5303       1.8513   
  182.23305m      1.4445     946.6603m      1.5210       1.8606   
  192.23305m      1.4580     933.0138m      1.5117       1.8698   
  202.23305m      1.4716     919.3734m      1.5024       1.8789   
  212.23305m      1.4852     905.7396m      1.4931       1.8881   
  222.23305m      1.4987     892.1131m      1.4839       1.8973   
  232.23305m      1.5123     878.4946m      1.4746       1.9064   
  242.23305m      1.5258     864.8849m      1.4654       1.9155   
  252.23305m      1.5393     851.2848m      1.4561       1.9246   
  262.23305m      1.5528     837.6950m      1.4469       1.9337   
  272.23305m      1.5662     824.1167m      1.4377       1.9428   
  282.23305m      1.5797     810.5507m      1.4285       1.9518   
  292.23305m      1.5931     796.9982m      1.4194       1.9608   
  302.23305m      1.6066     783.4605m      1.4102       1.9698   
  312.23305m      1.6199     769.9387m      1.4011       1.9787   
  322.23305m      1.6333     756.4345m      1.3920       1.9876   
  332.23305m      1.6467     742.9494m      1.3829       1.9965   
  342.23305m      1.6600     729.4851m      1.3739       2.0053   
  352.23305m      1.6733     716.0437m      1.3649       2.0141   
  362.23305m      1.6865     702.6272m      1.3559       2.0229   
  372.23305m      1.6998     689.2380m      1.3470       2.0316   
  382.23305m      1.7130     675.8789m      1.3381       2.0403   
  392.23305m      1.7261     662.5528m      1.3292       2.0489   
  402.23305m      1.7392     649.2630m      1.3204       2.0574   
  412.23305m      1.7523     636.0132m      1.3117       2.0659   
  422.23305m      1.7653     622.8076m      1.3030       2.0743   
  432.23305m      1.7783     609.6508m      1.2944       2.0827   
  442.23305m      1.7912     596.5479m      1.2859       2.0909   
  452.23305m      1.8041     583.5050m      1.2774       2.0991   
  462.23305m      1.8168     570.5283m      1.2691       2.1072   
  472.23305m      1.8295     557.6253m      1.2608       2.1151   
  482.23305m      1.8422     544.8040m      1.2527       2.1230   
  492.23305m      1.8547     532.0732m      1.2447       2.1307   
  502.23305m      1.8672     519.4425m      1.2368       2.1383   
  512.23305m      1.8795     506.9224m      1.2291       2.1458   
  522.23305m      1.8918     494.5237m      1.2216       2.1531   
  532.23305m      1.9039     482.2578m      1.2142       2.1603   
  542.23305m      1.9159     470.1360m      1.2071       2.1673   
  552.23305m      1.9278     458.1692m      1.2002       2.1741   
  562.23305m      1.9396     446.3678m      1.1935       2.1807   
  572.23305m      1.9512     434.7408m      1.1870       2.1872   
  582.23305m      1.9627     423.2959m      1.1809       2.1935   
  592.23305m      1.9741     412.0393m      1.1749       2.1995   
  602.23305m      1.9853     400.9759m      1.1693       2.2054   
  612.23305m      1.9963     390.1089m      1.1639       2.2110   
  622.23305m      2.0073     379.4404m      1.1588       2.2165   
  632.23305m      2.0180     368.9717m      1.1540       2.2217   
  642.23305m      2.0287     358.7030m      1.1495       2.2268   
  652.23305m      2.0392     348.6342m      1.1453       2.2316   
  662.23305m      2.0495     338.7644m      1.1413       2.2362   
  672.23305m      2.0597     329.0926m      1.1376       2.2407   
  682.23305m      2.0698     319.6171m      1.1342       2.2449   
  692.23305m      2.0797     310.3364m      1.1311       2.2490   
  702.23305m      2.0895     301.2485m      1.1283       2.2528   
  712.23305m      2.0992     292.3513m      1.1257       2.2564   
  722.23305m      2.1087     283.6426m      1.1234       2.2599   
  732.23305m      2.1181     275.1198m      1.1213       2.2632   
  742.23305m      2.1273     266.7806m      1.1195       2.2663   
  752.23305m      2.1364     258.6223m      1.1180       2.2692   
  762.23305m      2.1454     250.6423m      1.1167       2.2719   
  772.23305m      2.1543     242.8377m      1.1157       2.2744   
  782.23305m      2.1630     235.2058m      1.1149       2.2768   
  792.23305m      2.1717     227.7438m      1.1143       2.2789   
  802.23305m      2.1801     220.4487m      1.1140       2.2810   
  812.23305m      2.1885     213.3176m      1.1139       2.2828   
  822.23305m      2.1968     206.3476m      1.1141       2.2845   
  832.23305m      2.2049     199.5358m      1.1144       2.2860   
  842.23305m      2.2129     192.8793m      1.1150       2.2873   
  852.23305m      2.2208     186.3750m      1.1158       2.2885   
  862.23305m      2.2286     180.0202m      1.1168       2.2895   
  872.23305m      2.2363     173.8118m      1.1180       2.2903   
  882.23305m      2.2439     167.7472m      1.1195       2.2911   
  892.23305m      2.2513     161.8234m      1.1211       2.2916   
  902.23305m      2.2587     156.0376m      1.1229       2.2920   
  912.23305m      2.2659     150.3872m      1.1249       2.2922   
  922.23305m      2.2730     144.8694m      1.1271       2.2923   
  932.23305m      2.2801     139.4816m      1.1295       2.2923   
  942.23305m      2.2870     134.2212m      1.1321       2.2921   
  952.23305m      2.2938     129.0857m      1.1348       2.2918   
  962.23305m      2.3006     124.0727m      1.1377       2.2913   
  972.23305m      2.3072     119.1798m      1.1408       2.2906   
  982.23305m      2.3137     114.4046m      1.1440       2.2899   
  992.23305m      2.3202     109.7449m      1.1474       2.2890   
    1.00223       2.3265     105.1985m      1.1510       2.2880   
    1.01223       2.3328     100.7634m      1.1547       2.2868   
    1.02223       2.3389      96.4374m      1.1586       2.2855   
    1.03223       2.3450      92.2187m      1.1627       2.2841   
    1.04223       2.3509      88.1054m      1.1668       2.2825   
    1.05223       2.3568      84.0957m      1.1712       2.2808   
    1.06223       2.3626      80.1879m      1.1756       2.2790   
    1.07223       2.3683      76.3803m      1.1803       2.2770   
    1.08223       2.3739      72.6714m      1.1850       2.2749   
    1.09223       2.3794      69.0598m      1.1899       2.2727   
    1.10223       2.3848      65.5441m      1.1949       2.2703   
    1.11223       2.3901      62.1229m      1.2001       2.2679   
    1.12223       2.3953      58.7951m      1.2054       2.2653   
    1.13223       2.4005      55.5597m      1.2108       2.2625   
    1.14223       2.4055      52.4155m      1.2164       2.2597   
    1.15223       2.4104      49.3617m      1.2220       2.2566   
    1.16223       2.4153      46.3975m      1.2278       2.2535   
    1.17223       2.4201      43.5222m      1.2338       2.2502   
    1.18223       2.4247      40.7353m      1.2398       2.2468   
    1.19223       2.4293      38.0362m      1.2460       2.2433   
    1.20223       2.4337      35.4248m      1.2523       2.2396   
    1.21223       2.4381      32.9008m      1.2588       2.2357   
    1.22223       2.4423      30.4642m      1.2653       2.2318   
    1.23223       2.4465      28.1154m      1.2720       2.2276   
    1.24223       2.4505      25.8546m      1.2788       2.2233   
    1.25223       2.4544      23.6825m      1.2857       2.2188   
    1.26223       2.4582      21.5998m      1.2928       2.2142   
    1.27223       2.4619      19.6077m      1.3000       2.2094   
    1.28223       2.4654      17.7075m      1.3073       2.2044   
    1.29223       2.4688      15.9007m      1.3147       2.1992   
    1.30223       2.4720      14.1892m      1.3223       2.1937   
    1.31223       2.4751      12.5750m      1.3300       2.1881   
    1.32223       2.4780      11.0604m      1.3379       2.1822   
    1.33223       2.4808       9.6476m      1.3459       2.1761   
    1.34223       2.4833       8.3389m      1.3540       2.1697   
    1.35223       2.4857       7.1363m      1.3623       2.1631   
    1.36223       2.4879       6.0415m      1.3708       2.1562   
    1.37223       2.4898       5.0554m      1.3794       2.1489   
    1.38223       2.4916       4.1779m      1.3881       2.1414   
    1.39223       2.4931       3.4076m      1.3971       2.1336   
    1.40223       2.4945       2.7415m      1.4061       2.1255   
    1.41223       2.4956       2.1749m      1.4153       2.1171   
    1.42223       2.4966       1.7013m      1.4246       2.1085   
    1.43223       2.4974       1.3124m      1.4341       2.0996   
    1.44223       2.4980     998.9992u      1.4436       2.0905   
    1.45223       2.4985     750.8777u      1.4533       2.0812   
    1.46223       2.4989     557.7896u      1.4630       2.0717   
    1.47223       2.4992     409.8919u      1.4728       2.0621   
    1.48223       2.4994     298.2201u      1.4827       2.0525   
    1.49223       2.4996     214.9730u      1.4925       2.0427   
    1.50223       2.4997     153.6223u      1.5025       2.0329   
    1.51223       2.4998     108.8776u      1.5124       2.0230   
    1.52223       2.4999      76.5599u      1.5223       2.0131   
    1.53223       2.4999      53.4328u      1.5323       2.0032   
    1.54223       2.4999      37.0293u      1.5423       1.9932   
    1.55223       2.5000      25.4934u      1.5523       1.9832   
    1.56223       2.5000      17.4462u      1.5623       1.9733   
    1.57223       2.5000      11.8749u      1.5722       1.9633   
    1.58223       2.5000       8.0443u      1.5822       1.9533   
    1.59223       2.5000       5.4269u      1.5922       1.9433   
    1.60223       2.5000       3.6483u      1.6022       1.9333   
    1.61223       2.5000       2.4455u      1.6122       1.9233   
    1.62223       2.5000       1.6355u      1.6222       1.9133   
    1.63223       2.5000       1.0919u      1.6322       1.9033   
    1.64223       2.5000     728.1641n      1.6422       1.8933   
    1.65223       2.5000       0.           1.6522       1.8833   
    1.66223       2.5000       0.           1.6622       1.8733   
    1.67223       2.5000       0.           1.6722       1.8633   
    1.68223       2.5000       0.           1.6822       1.8533   
    1.69223       2.5000       0.           1.6922       1.8433   
    1.70223       2.5000       0.           1.7022       1.8333   
    1.71223       2.5000       0.           1.7122       1.8233   
    1.72223       2.5000       0.           1.7222       1.8133   
    1.73223       2.5000       0.           1.7322       1.8033   
    1.74223       2.5000       0.           1.7422       1.7933   
    1.75223       2.5000       0.           1.7522       1.7833   
    1.76223       2.5000       0.           1.7622       1.7733   
y
-----------------------------------------------
 maxvd=   failed     at=   0.     
             from=   0.         to=   0.     
   snm= failed                         measure parameter failed

          ***** job concluded
1****** HSPICE -- G-2012.06-SP1 32-BIT (Aug 27 2012) win32 ******               
 ******  
 *hw 6, problem 1, determination of snm graphically

  ******  job statistics summary tnom=  25.000 temp=  25.000 *****

  ******  HSPICE Threads Information  ******

  Command Line Threads Count :     1
  Available CPU Count        :     8
  Actual Threads Count       :     1


  ******  Circuit Statistics  ******
  # nodes       =      23 # elements   =      13
  # resistors   =       0 # capacitors =       2 # inductors   =       0
  # mutual_inds =       0 # vccs       =       0 # vcvs        =       4
  # cccs        =       0 # ccvs       =       0 # volt_srcs   =       1
  # curr_srcs   =       0 # diodes     =       0 # bjts        =       0
  # jfets       =       0 # mosfets    =       6 # U elements  =       0
  # T elements  =       0 # W elements =       0 # B elements  =       0
  # S elements  =       0 # P elements =       0 # va device   =       0
  # vector_srcs =       0 # N elements =       0


  ******  Runtime Statistics (seconds)  ******

  analysis           time    # points   tot. iter  conv.iter
  op point           0.00           1           0
  dc sweep           0.05         354         825
  readin             0.11
  errchk             0.04
  setup              0.03
  output             0.00


           peak memory used         37.02 megabytes
           total cpu time            0.29 seconds
           total elapsed time        0.40 seconds
           job started at     23:02:04 01/08/2018
           job ended   at     23:02:04 01/08/2018


  lic: Release hspice token(s) 
 lic: total license checkout elapse time:        0.09(s)
