$DATA1 SOURCE='HSPICE' VERSION='G-2012.06-SP1 32-BIT'
.TITLE '*hw 6, problem 1, determination of snm graphically'
 maxvd            snm              temper           alter#            
    failed           failed          25.0000        1                 
